<?xml version='1.0' encoding='UTF-8'?>
<routes>
  <vType id="taxi" vClass="taxi" length="4.8" maxSpeed="13.89" accel="2.8" decel="4.5" sigma="0.5" color="255,200,0" />
  <vType id="car" vClass="passenger" length="4.5" maxSpeed="13.89" accel="2.6" decel="4.5" sigma="0.5" color="100,100,255" />
  <vType id="ev" vClass="passenger" length="4.7" maxSpeed="13.89" accel="3.0" decel="4.5" sigma="0.3" color="0,255,100">
    <param has.battery.device="true" maximumBatteryCapacity="50000" />
  </vType>
  <vType id="delivery" vClass="delivery" length="6.0" maxSpeed="11.11" accel="2.0" decel="4.0" sigma="0.5" color="139,69,19" />
  <vType id="bus" vClass="bus" length="12.0" maxSpeed="11.11" accel="1.2" decel="3.0" sigma="0.5" color="0,100,200" />
  <vType id="emergency" vClass="emergency" length="6.5" maxSpeed="22.22" accel="3.5" decel="5.0" sigma="0.0" color="255,0,0" guiShape="emergency" />
</routes>