<?xml version='1.0' encoding='UTF-8'?>
<routes>
  <vType id="car" length="4.5" maxSpeed="13.89" accel="2.6" decel="4.5" sigma="0.5" color="1,1,0" />
  <vType id="taxi" length="4.8" maxSpeed="13.89" accel="2.6" decel="4.5" sigma="0.5" color="1,0.8,0" />
  <vType id="bus" length="12.0" maxSpeed="11.11" accel="1.2" decel="3.0" sigma="0.5" color="0,0.4,0.8" />
  <vType id="delivery" length="6.0" maxSpeed="11.11" accel="2.0" decel="4.0" sigma="0.5" color="0.5,0.3,0" />
  <vehicle id="veh_0" type="bus" depart="0.0" departLane="best" departSpeed="random">
    <route edges="5670197#0 1051734607#0 1124078899#0 194926854#0 125479721#0 542257430#0 195743345#0 420907902#0 125480075#0 1198594026#0 1207834766 1198594029#0 194926851#0 1198594030#0 1027189508 1027189507#0 226041028#0 167922074#0 167922071#0 452322757#0 452322756#0" />
  </vehicle>
  <vehicle id="veh_1" type="bus" depart="1.959417638548913" departLane="best" departSpeed="random">
    <route edges="968394451#0 420598330#0 986615539#0 986615541#0 1018454468#0 846127260#0 350726028#3 1027130512#0 1027130513#0 1027130511#0 384178813#0 963567032 963567034#0 156994955#0 226041042#0 46490540#0" />
  </vehicle>
  <vehicle id="veh_2" type="car" depart="4.439578239165954" departLane="best" departSpeed="random">
    <route edges="542257430#0 195743345#0 420907902#0 125480075#0 1198594026#0 1207834766 1198594029#0 1198594028#0 1051744778#0 968513231#0" />
  </vehicle>
  <vehicle id="veh_3" type="car" depart="5.156500306510924" departLane="best" departSpeed="random">
    <route edges="710571390#0 1030119892#0 1030119893#0 455125048#0 455122830#0 710571389#0 710571393#0 -375165665 -587038082#1 -497165757#4 -388696206#3 -1087048475#1 -497258109#4 497258108#0 497258108#2 1211049195#0 5670253#0" />
  </vehicle>
  <vehicle id="veh_4" type="car" depart="7.821406165073357" departLane="best" departSpeed="random">
    <route edges="5671709#0 420905130#0 382740985#3 1023136586#0 1059314985#0 226041030#0 226041031 1025734018#0 1025734019#0 1320234482#0 1025734020#0 814278019#0 1136391284#0 420907908#0 968513231#0 968513229#0 1021047632#0 194926855#0 525729009#0 1025734022#0 525729010#0 1135614655#0 1051734606#0 420901923#0 420901919#0 420901920#0 420901917#0 420901921#0 420901922#0 194926856#0 350726030#0 460069727#0 5672730#0" />
  </vehicle>
  <vehicle id="veh_5" type="bus" depart="8.366358918320095" departLane="best" departSpeed="random">
    <route edges="194923805#0 939444709 763121491 34625464 1306214128#0 1306214127 1306214126 1306214129 1197056479 1138164087 127693200#0 127693200#3 226041041#0 226041042#0 46490540#0 939613202#0 396444293#0 396444293#1 396444293#4 396444295#0 396444295#2 1021481768#2 1021481767#1 1029634435#0 496986803#0 496986803#7 496986803#13 1211608942#0 1041012063#0 1211608943#0 954520389#0 945460473#0 -68325079#1 -420904620 1212776159#0 988987062" />
  </vehicle>
  <vehicle id="veh_6" type="bus" depart="10.180524439143129" departLane="best" departSpeed="random">
    <route edges="384178812#0 939613200#0 939613202#0 396444293#0 396444293#1 396444293#4 396444295#0 396444295#2 1203138885#0 46226332 420901925 36806658#0 1041018376 36806659 1041018377#0 1038780408#0 767683114#0 1157664114#0 600848485#0 1207834768#0 1027181005#0 1027181006#0 1124078896#0 1207834767#0 1124078897#0 1124078898#0 1124078899#0 194926854#0 125479721#0 542257430#0 195743345#0 420907902#0 -525729008#5 -167922076#2 -1136952921#1 -167922072#1 -1320232776#1 -511699183#2 -1272613981#1 511699181#0 966105510#0 438384693#0 438384693#3 420356173#0 420906755#0 1106482767#0 458180181#0 1106482768#0 420902878#0 1037772010#0 1061623142#0 420496090#0 458166897#12 458166897#15 458166897#18 458166897#21 458166897#24 458166897#27 458166897#30 458166897#33 46521994#0 670988060#0 456409016#0 420806146#0" />
  </vehicle>
  <vehicle id="veh_7" type="car" depart="11.981805696461523" departLane="best" departSpeed="random">
    <route edges="420908138#0 1211049194#0 569345537#0 717625447#3 1165644579#0 496992867#0 496992868#0 1023238044 420281339#0 541331485#0 226041011#1 458180194#0 458166897#36 710571389#0 710571393#0 -375165665 375165664#0 993383311 710571391#2 375165500#0 375165500#3 375164212 46211836#0 1106167120#0" />
  </vehicle>
  <vehicle id="veh_8" type="car" depart="13.055639319257763" departLane="best" departSpeed="random">
    <route edges="497258108#2 1211049195#0 5670253#0 5670874#0 1150705656#0 422298615#0 195743336#0 195743336#3 195743336#6 988984235#0 458180197#0 458180191#0 458180191#3 1352944235#0 458180190#0 384178816#0 384178816#3 511699175#0 5670225#0 1106482767#0 458180181#0 1106482768#0 420902878#0 1037772010#0 1061623142#0 196117039#0 496990647#0 420356171#0 420356171#3 5672151#0 46518731#4 1022790246#0" />
  </vehicle>
  <vehicle id="veh_9" type="car" depart="14.696653139749605" departLane="best" departSpeed="random">
    <route edges="1030123278#0 670988060#0 456409016#0 420806146#0 46521998#0 1201651432#0 1201651434#0 1201651437#0 1201651437#4 569345518#0 569345525#0 569345531#0 569345535#0 1352944235#0 458180190#0 384178816#0 384178816#3 511699175#0 458180183#0 438397345#0 464515891#0 511699184#0 511699185#0 438385431#0" />
  </vehicle>
  <vehicle id="veh_10" type="bus" depart="15.730899855557478" departLane="best" departSpeed="random">
    <route edges="1161025023#0 1046481426 196116991#0 630828581#0 630828581#6 938601996#0 460067515#0 1025734017#0 420892262#0 420892266#0 420892263#0 420892264#0 420892275#0 420892265#0 420892269#0 420892272#0 420892273#0 420892271#0 5671276#0 1025734018#0 1025734019#0 1320234482#0 46443656#0 46443656#3" />
  </vehicle>
  <vehicle id="veh_11" type="car" depart="16.603101144662205" departLane="best" departSpeed="random">
    <route edges="965833822#11 812949648#0 226041030#0 226041031 1025734018#0 1025734019#0 1320234482#0 1025734020#0 814278019#0 1136391284#0 420907908#0 968513231#0 968513229#0 1021047632#0 194926855#0 525729009#0 1025734022#0 525729010#0 1135614655#0 1051734606#0 420901923#0 420901919#0 420901920#0 420901917#0 420901921#0 420901922#0 -1088325197#1 -36806903#1 -542096280#1 -589494596#1 -273019810#4 95181774#0 46481095#2 46481095#8 989267827 118714476#1" />
  </vehicle>
  <vehicle id="veh_12" type="delivery" depart="19.287677080200183" departLane="best" departSpeed="random">
    <route edges="46522002#0 458180186#0 1376704198#4 1376704198#8 569345518#0 569345525#0 420906753#0 496992868#0 1023238044 420281339#0 458180196#0 420906752#0 421850830#0 421850829#0 388696207#0 388696207#3 198924587#0 964208970#0 458180198#0 1052631409#0 5672290#0 5670873#0" />
  </vehicle>
  <vehicle id="veh_13" type="car" depart="21.142911021631466" departLane="best" departSpeed="random">
    <route edges="569345525#0 569345531#0 569345535#0 46538335#0 569345536#0 569345537#0 569345537#3 569345537#6 569345537#9 541350711#0 541350711#3 497258108#0 497258108#2 1211049195#0 420899372#0 1205900284 -195743152#1 186202420#0 439801903 5670348 709355577#2 420897874#0 46579577#0 1081893303#2 1081883662" />
  </vehicle>
  <vehicle id="veh_14" type="taxi" depart="23.988029054041917" departLane="best" departSpeed="random">
    <route edges="962813251#2 497251086#0 46522160#2 420496091#0 420496091#3 420496091#6 1106471568#0 458180200#0 569345480#0 569345474#0 569345486#0 588157336#0 569345502#0 569345502#3 1250866957#0 458180195#0 1201651432#0 1201651434#0 1201651437#0 1201651437#4 569345515#0 569345515#4 569345515#8 1376704196#0 1376704196#4 22916381#0 988956475 -988956476 -872052106 872052109#0 771759765 226041002#0 226041002#1 1046745000#0" />
  </vehicle>
  <vehicle id="veh_15" type="car" depart="26.607558009654717" departLane="best" departSpeed="random">
    <route edges="700951338#0 500717399#0 464543614#0 1124078898#0 1124078899#0 194926854#0 125479721#0 542257430#0 195743345#0 420907902#0 125480075#0 1198594026#0 1207834766 1198594029#0 194926851#0 1198594030#0 1027189508 1027189507#0 1049888072#0 420907903#0 420907906#0 1207834765 1376935153#0 1027189510#0 1027189509#2 420890028 420890024#0 420890025#0 420890029#0 439933933#0 196117092#0 420890023#0 439801902 460065820 439801901#0 439801903 171574337 1024425029#0 630828582#0 671202178#0 420276995#0 1161025024#0 452322366#0 -1081893303#1 -584971528#1" />
  </vehicle>
  <vehicle id="veh_16" type="car" depart="28.57543824567154" departLane="best" departSpeed="random">
    <route edges="384178813#0 963567032 963567034#0 156994955#0 226041042#0 46490540#0 939613202#0 396444293#0 396444293#1 396444293#4 396444295#0 396444295#2 1203138885#0 46226332 420901925 36806658#0 1041018376 36806659 1041018377#0 1038780408#0 767683114#0 1157664114#0 600848485#0 1207834768#0 1027181005#0 1027181006#0 1124078896#0 1207834767#0 1124078897#0 1124078898#0 1124078899#0 194926854#0 125479721#0 542257430#0 195743345#0 420907902#0 -525729008#5 -167922076#2 -1136952921#1 -167922072#1 -1320232776#1 -511699183#2 -1272613981#1 511699181#0 966105510#0 438384693#0 438384693#3 420356173#0 420906755#0 1106482767#0 458180181#0 1106482768#0 420902878#0 1037772010#0 1061623142#0 420496090#0 458166897#12 458166897#15 458166897#18 458166897#21 458166897#24 458166897#27 458166897#30 458166897#33 458166897#36 710571389#0 710571393#0 -375165665 375165664#0 993383311 710571391#2 375165501#0 1356976352#0 420806145#0 375165666#0 962813251#2 497251086#0 497251086#2 497251086#4 1224480428#0 196117089#0 686125790#0 686125790#3 686125790#6" />
  </vehicle>
  <vehicle id="veh_17" type="delivery" depart="31.20110246688664" departLane="best" departSpeed="random">
    <route edges="872052106 988956476 1037772011 575746067 1049841322#0 1106482766#0 1106482765#0 1106482765#2 511699175#0 458180183#0 438397345#0 464515891#0 511699184#0 511699183#0 1320232776#0 167922072#0 1136952921#0 167922076#0 167922070#0 195743344#0 569345545#0 1049920716#0 1049920718#0 1376929274#0 1135620538#0 464543615#0 5673561#0 1051750428#0 1124078896#0 1207834767#0 46481747#0" />
  </vehicle>
  <vehicle id="veh_18" type="car" depart="31.861724501173356" departLane="best" departSpeed="random">
    <route edges="68674968#4 458177128#6 195743182#0 195743182#3 195743182#6 511699182#0 511699182#3 438384692#0 511699183#0 1320232776#0 167922072#0 1136952921#0 167922076#0 525729008#0 1321771943#0 542259076#0 1320290376#0 -167922077#1 -1320549615#1 -420904618#3 460585328#0 460585328#3 460585328#6 460585328#9" />
  </vehicle>
  <vehicle id="veh_19" type="delivery" depart="34.555777760224274" departLane="best" departSpeed="random">
    <route edges="1201651437#0 1201651437#4 569345518#0 569345525#0 420906753#0 496992868#0 1023238044 420281339#0 458180196#0 420906752#0 421850830#0 528748997#0 573228989#0 46240204#0 671208358#0 671208358#4 46334594#7" />
  </vehicle>
  <vehicle id="veh_20" type="car" depart="37.01760808900082" departLane="best" departSpeed="random">
    <route edges="194926847#0 460585328#3 46482609#0 968513229#0 1021047632#0 194926855#0 525729009#0 1025734022#0 525729010#0 1135614655#0 1051734606#0 420901923#0 420901919#0 420901920#0 420901917#0 420901921#0 420901922#0 194926856#0 350726030#0 460069727#0 5672730#0 207542284 36806670-AddedOnRampEdge 36806670 589494600" />
  </vehicle>
  <vehicle id="veh_21" type="car" depart="38.896137375386225" departLane="best" departSpeed="random">
    <route edges="46443656#3 989265273#3 5671115#0 460585328#18 1308875367#0 1308875366#2 808190587#0 601733867#0 808190579#0 808190588#0 195743301#0 808190577#0 808190584#0 808190584#3 808190576 1343181788#0 195743297#0 1343181789#0 46525065#3 46525065#7" />
  </vehicle>
  <vehicle id="veh_22" type="car" depart="40.9154672357815" departLane="best" departSpeed="random">
    <route edges="-420904621#1 -169267538#1 5673276#0 420904838#0 505777313#0 169267539#0 992144531#0 1156946159#0 46482603 46482602#0 46482602#2 420907908#0 968513231#0 968513229#0" />
  </vehicle>
  <vehicle id="veh_23" type="delivery" depart="43.36081683111753" departLane="best" departSpeed="random">
    <route edges="5670197#0 1051734607#0 542257008#0 1049920717#0 700951338#0 700951339#0 963613972#0 46522006#0 458166892#0 458166892#3 195743343#0 195743343#3 588168464#0 464515614#0 5671317#0 226040996#0" />
  </vehicle>
  <vehicle id="veh_24" type="taxi" depart="44.017483052093546" departLane="best" departSpeed="random">
    <route edges="835176553#0 195743297#0 1343181789#0 46525065#3 46525065#7 308322446#0 308322448#0 1167939119#0 196116976#0 196116976#3 196116976#6 1267505843#0 1267505842#0 1136460180#0 1136460181#0 717625448#0 717625448#1 1023136586#0 588157337#0 569345540#0 569345540#3 167922071#0 483360105#0 397795463#0 682360554#0 397795464#0 569345544#0 167922070#0 195743344#0 569345545#0 1049920716#0 1049920718#0 1049920717#0 700951338#0 700951339#0 963613972#0 46522006#0 458166892#0 458166892#3 -420904659#1 -5671315#1 -420904658#3 -1088325195#2 -571651963#2 -542096278#5 -587038129#2 -1088325194" />
  </vehicle>
  <vehicle id="veh_25" type="car" depart="46.10791366190344" departLane="best" departSpeed="random">
    <route edges="671208358#12 5673461#8 420496091#3 420496091#6 1106471568#0 458180200#0 569345480#0 569345474#0 569345486#0 588157336#0 569345502#0 569345502#3 1250866957#0 458180195#0 458180193#0 458180193#3 458180193#6 458180189#0 458180187#0 458180187#3 458180187#6 196117039#0 496990647#0 496990647#3 630828556#0 1316295726#0 458177133#0 1150636496#0 1150636497#0 68674968#0 68674968#4 458177128#6 195743182#0 858965315#0" />
  </vehicle>
  <vehicle id="veh_26" type="bus" depart="46.88348187100537" departLane="best" departSpeed="random">
    <route edges="5669879#0 1049843664#0 1049843665#0 968393466#0 46522160#0 497251086#2 497251086#4 1224480428#0 196117089#0 686125781#0 686125781#3 68674962#89 68674962#93 68674962#97" />
  </vehicle>
  <vehicle id="veh_27" type="taxi" depart="47.7546002492467" departLane="best" departSpeed="random">
    <route edges="808055022#0 808055023#0 5672501#0 993368839#9 195743141#0 440947098#0 1046481429#0 802292177#0 1081883662 992603344 5673117 962831194 962831195 5672760#0 981182867#0 195743166#0 195743166#5 1106471567#0 1106471567#3 420496091#0 5673461#11 497251086#0 46522160#2" />
  </vehicle>
  <vehicle id="veh_28" type="delivery" depart="50.57207923058591" departLane="best" departSpeed="random">
    <route edges="992144532 1313135172 1341940285 989265270#0 989265272#0 1156946161#0 1156946158#0 1156946157#0 1213301201 1149178606 779661114#0 420904620 974611019#0 420904618#0 1320549615#0 167922077#0 -1320290376#1 -542259076#1 -1321771943#2 -525729008#5 167922070#0 195743344#0 569345545#0 1049920716#0 1049920718#0 1376929274#0 1135620538#0 464543615#0 1051750427#0 5670803#0 492489884#0 1082072647#0 460606347#0 439933932#0 -384649121#7" />
  </vehicle>
  <vehicle id="veh_29" type="taxi" depart="52.033533429249296" departLane="best" departSpeed="random">
    <route edges="1041012063#0 895394557#0 273895450#0 226041023 1031879418#0 505317789#0 542258060#0 1049920716#0 1049920718#0 1049920717#0 700951338#0 700951339#0 963613972#0 46522006#0 458166892#0 458166892#3 -420904659#1 -5671315#1 -420904658#3 -1088325195#2 -571651963#2 -542096278#5 554083353#0 518451327#4" />
  </vehicle>
  <vehicle id="veh_30" type="taxi" depart="54.971774841985585" departLane="best" departSpeed="random">
    <route edges="420494981#0 1051744070#0 46522000#0 5670225#0 1106482767#0 458180181#0 1106482768#0 420902878#0 1037772010#0 1061623142#0 196117039#0 496990647#0 496990647#3 -420356168#4 420356169#0 988980354#0 384826723#0 1021051876#0 1030139835#0 420901673#0 226041003#0 1414774493#0" />
  </vehicle>
  <vehicle id="veh_31" type="car" depart="55.5130418264969" departLane="best" departSpeed="random">
    <route edges="511699182#3 511699181#0 966105510#0 438384693#0 438384693#3 420356173#0 420906755#0 1106482767#0 458180181#0 1106482768#0 420902878#0 1037772010#0 1061623142#0 420496090#0 458166897#12 458166897#15 458166897#18 458166897#21 458166897#24 458166897#27 458166897#30 458166897#33 458166897#36 710571389#0 710571393#0 -375165665 375165664#0 993383311 710571391#2" />
  </vehicle>
  <vehicle id="veh_32" type="car" depart="56.85805313953652" departLane="best" departSpeed="random">
    <route edges="1059314985#0 226041030#0 226041031 1025734018#0 1025734019#0 1320234482#0 1025734020#0 814278019#0 1136391284#0 420907908#0 968513231#0 968513229#0 1021047632#0 194926855#0 525729009#0 1025734022#0 525729010#0 1135614655#0 1051734606#0 420901923#0 420901919#0 420901920#0 420901917#0 420901921#0 420901922#0 420509471#0" />
  </vehicle>
  <vehicle id="veh_33" type="delivery" depart="59.483983138944154" departLane="best" departSpeed="random">
    <route edges="5671115#4 5671115#7 1049888072#0 420907903#0 420907906#0 1207834765 1376935153#0 1027189510#0 1027189509#2 420890028 420890024#0 420890025#0 420890029#0 439933933#0 196117092#0 420890023#0 439801902 460065820 1211612936 420899373 -196116988#1 -420899371 5670253#0 5670874#0 5671574#0 198924587#0 964208970#0 458180199#0 458180199#3 458180199#6 458180199#8 458180199#11 195743183#0 195743183#3 195743183#6 543905773#0 686125782#7 686125782#10 686125782#13 686125782#16 46694753#4 1106469542#0 320584278#11" />
  </vehicle>
  <vehicle id="veh_34" type="car" depart="61.01771777951444" departLane="best" departSpeed="random">
    <route edges="528748997#7 569345502#3 1250866957#0 458180195#0 1201651432#0 1201651434#0 1201651437#0 1201651437#4 569345515#0 569345515#4 569345515#8 1376704196#0 1376704196#4 22916381#0 988956475 -988956476 -872052106" />
  </vehicle>
  <vehicle id="veh_35" type="car" depart="63.837640938836145" departLane="best" departSpeed="random">
    <route edges="5670899#0 32946656#0 511924053#0 456409016#0 420806146#0 46521998#0 1201651432#0 1201651434#0 1201651437#0 1201651437#4 569345518#0 569345525#0 569345531#0 569345535#0 1352944235#0 458180190#0 384178816#0 384178816#3 511699175#0 458180183#0 438397345#0 464515891#0 511699184#0 511699185#0 438385431#0 5672155#0" />
  </vehicle>
  <vehicle id="veh_36" type="delivery" depart="66.30103560341989" departLane="best" departSpeed="random">
    <route edges="767683109 767683108#0 1027130505#0 989270322#0 1027130508#0 1027130507#0 1027130509#0 1027130510#0 350726028#0 846127259#0 396444293#1 597821266#4" />
  </vehicle>
  <vehicle id="veh_37" type="car" depart="67.73417848285483" departLane="best" departSpeed="random">
    <route edges="1027130505#0 1041018376 36806659 1041018377#0 1038780408#0 767683114#0 1157664114#0 600848485#0 1207834768#0 1027181005#0 1027181006#0 1124078896#0 1207834767#0 1124078897#0 1124078898#0 1124078899#0 194926854#0 125479721#0 542257430#0 195743345#0 420907902#0 -525729008#5 -167922076#2 -1136952921#1 -167922072#1 -1320232776#1 -511699183#2 -1272613981#1 511699181#0 966105510#0 438384693#0 438384693#3 420356173#0 420906755#0 1106482767#0 458180181#0 1106482768#0 420902878#0 1037772010#0 1061623142#0 420496090#0 1051751160#0 46522001#0 46518734#0 988977540 884400300 884400282 884400293 379843702#0 819074878 619280617#0 884400294#0 884400286#0 884400289#0 884400289#3 884400301#0 884400297#0 1029395781#0 169381962#0 226092571#0" />
  </vehicle>
  <vehicle id="veh_38" type="car" depart="69.95186175886037" departLane="best" departSpeed="random">
    <route edges="1090370031 381480256#0 954929768#0 420872177 368938762 955205137#0 368938761#0 1313071250#0 771939270#0 1313071249#0 46518732 884400281 -682359868 -747908051#1 -747908052#2 -384826723#2 -988980354#1 -420356169#3 420356168#0 630828556#0 5670106#0 1316831693#0" />
  </vehicle>
  <vehicle id="veh_39" type="taxi" depart="72.69522785010633" departLane="best" departSpeed="random">
    <route edges="-1320549615#1 -420904618#3 460585328#0 460585328#3 46482609#0 226041027#0 1207834766 1198594029#0 194926851#0 1198594030#0 1027189508 1027189507#0 1049888072#0 420907903#0 420907906#0 1207834765 1376935153#0 1027189510#0 1027189509#2 420890028 420890024#0 420890025#0 420890029#0 439933933#0 196117092#0 420890023#0 439801902 460065820 1211612936 420899373 -196116988#1 -420899371 5670253#0 5670874#0 5671574#0 198924587#0 964208970#0 458180199#0 458180199#3 5673461#3 671208358#16 671208358#20 671208358#24 195743166#5" />
  </vehicle>
  <vehicle id="veh_40" type="car" depart="74.23528843628166" departLane="best" departSpeed="random">
    <route edges="420906753#0 496992868#0 1023238044 420281339#0 458180196#0 420906752#0 421850830#0 421850829#0 -1087048475#1 -497258109#4 497258108#0 497258108#2 1211049195#0 420899372#0 1205900284 -195743152#1 186202420#0 439801903 171574337 1024425029#0 46579578#0 460067515#0 1025734017#0 46525065#7" />
  </vehicle>
  <vehicle id="veh_41" type="car" depart="74.98194538598705" departLane="best" departSpeed="random">
    <route edges="-36185649#2 884400289#3 884400301#0 884400297#0 1029395781#0 169381962#0 226092571#0 978329305#0 -421851200#2 -421851201#2 -587355676#1 -375165665 375165664#0 993383311 710571391#2 375165501#0 1356976352#0 420806145#0 375165666#0 962813251#2 497251086#0 497251086#2 497251086#4 196117001#0 46334591#0" />
  </vehicle>
  <vehicle id="veh_42" type="delivery" depart="77.04596560645311" departLane="best" departSpeed="random">
    <route edges="-154716101#1 -154716101#0 46529270#0 -346951422 46526965#0 -420894374#1 -46538396#1 -5669975#1 22904155#0 46538405#0 46525065#0 46525065#3 46525065#7 308322446#0 308322448#0 1167939119#0 196116976#0 196116976#3 196116976#6 1267505843#0 1267505842#0 1136460180#0 1136460181#0 717625448#0 717625448#1 1023136586#0 588157337#0 569345540#0 569345540#3 167922071#0 483360105#0 397795463#0 682360554#0 397795464#0 569345544#0 -167922076#2 35027229#0 803047267#0 542258061#0 226041022#0 438385431#3 438385431#6 438385431#9 420904660#0 1036712190" />
  </vehicle>
  <vehicle id="veh_43" type="bus" depart="79.59793519086011" departLane="best" departSpeed="random">
    <route edges="671202178#0 835176557#0 630828581#6 5669002#0 835176555#0 835176554#0 1024425034 439801902 976050707#0 308322448#0 1167939119#0 196116976#0 196116976#3 196116976#6 1267505843#0 1267505842#0 1136460180#0 1136460181#0 717625448#0 717625448#1 1023136586#0 588157337#0 569345540#0 569345540#3 167922071#0 483360105#0 397795463#0 682360554#0 397795464#0 569345544#0 -167922076#2 35027229#0 803047267#0 542258061#0 226041022#0 5672155#0 226041004#0 771759765 226041002#0 226041002#1 1046745000#0 458177133#0 458177133#4 858965316#0 1049879868#0 936539648#0 420901683#0 457948936#0 46334595#0 1090370031 381480256#0" />
  </vehicle>
  <vehicle id="veh_44" type="car" depart="82.00165079476115" departLane="best" departSpeed="random">
    <route edges="379843702#0 819074878 619280617#0 884400294#0 884400286#0 1209567443#0 658583340#0 658583340#3 1388287829#0 569345508#0 569345518#0 569345525#0 569345531#0 569345535#0 46538335#0 569345536#0 569345538#0 569345539#0 1059314985#0 226041030#0 226041031 1025734018#0 1025734019#0 1320234482#0 1025734020#0 814278019#0 1136391284#0 420907908#0" />
  </vehicle>
  <vehicle id="veh_45" type="car" depart="83.82720258068547" departLane="best" departSpeed="random">
    <route edges="1201643836#0 1201643838 1201643837#0 458166894#0 195743182#0 195743182#3 195743182#6 511699182#0 511699182#3 511699181#0 966105510#0 438384693#0 438384693#3 420356173#0 420906755#0 1106482767#0 458180181#0 1106482768#0 420902878#0 22916381#0 988956475 -988956476 -872052106" />
  </vehicle>
  <vehicle id="veh_46" type="delivery" depart="85.68862037757535" departLane="best" departSpeed="random">
    <route edges="464515259#0 464515259#5 767683114#0 1157664114#0 600848485#0 1207834768#0 1027181005#0 1027181006#0 1124078896#0 1207834767#0 1124078897#0 1124078898#0 1124078899#0 194926854#0 125479721#0 542257430#0 195743345#0 420907902#0 1321771943#0 542259076#0 1320290376#0 -167922077#1 -1320549615#1 -420904618#3 460585328#0 460585328#3 460585328#6 460585328#9 460585328#12 460585328#15 5671115#4" />
  </vehicle>
  <vehicle id="veh_47" type="car" depart="86.59573686813061" departLane="best" departSpeed="random">
    <route edges="482494938 1097213725 1097213725-AddedOffRampEdge 658488334 936537012#0 46469721 380147339#0 729972918#0 729972918#5 226040999#0 1271749957#0 1150636496#0 1150636497#0 1150636499#0 1150636500#0 195743182#6 511699182#0 511699182#3 511699181#0 966105510#0 438384693#0 438384693#3 420356173#0 420906755#0 458180182#0 420906743#0 420356172#0 496993762#0 458180185#0 441405435#0 1023236297#0 569345531#0 569345535#0 46538335#0 569345536#0 569345537#0 569345537#3 569345537#6 569345537#9 541350711#0 541350711#3 497258108#0 497258108#2 1211049195#0 420899372#0 1205900284 -195743152#1 186202420#0 439801903 171574337 1024425029#0 46579578#0 5671691#0 1052660936#0 789634640#0 420894376#0 -420894368#1 420894363#0 420894362#0 420894366#0 37182106#2 395037175 -154716101#0 -154716105" />
  </vehicle>
  <vehicle id="veh_48" type="car" depart="89.2222093547342" departLane="best" departSpeed="random">
    <route edges="5670029#11 497251086#4 1224480428#0 196117089#0 686125781#0 686125781#3 686125781#8 686125781#11 195743342#0 5672760#0" />
  </vehicle>
  <vehicle id="veh_49" type="car" depart="91.09319801102207" departLane="best" departSpeed="random">
    <route edges="-5670253#2 420899372#0 1205900284 1022822153#0 496986970#0 496989355#0 496989355#3 496989355#6 382740985#0 382740985#3 1023136586#0 588157337#0 569345540#0 569345540#3 167922071#0 483360105#0 397795463#0 682360554#0 397795464#0 569345544#0 167922070#0 195743344#0 569345545#0 1049920716#0 1049920718#0 1049920717#0 700951338#0 700951339#0 963613972#0 46522006#0 458166892#0 458166892#3 195743343#0 195743343#3 5671693#0 195743165#0 1037772009#0 5673380#0" />
  </vehicle>
  <vehicle id="veh_50" type="delivery" depart="93.96342684511268" departLane="best" departSpeed="random">
    <route edges="819074878 619280617#0 884400294#0 884400286#0 1209567443#0 658583340#0 658583340#3 1388287829#0 569345508#0 569345518#0 569345525#0 569345531#0 569345535#0 46538335#0 569345536#0 569345538#0 569345539#0 1059314985#0 226041030#0 1027189510#0 1027189509#2 420890028 420890024#0" />
  </vehicle>
  <vehicle id="veh_51" type="delivery" depart="95.442933888923" departLane="best" departSpeed="random">
    <route edges="671208358#0 671208358#4 46334594#7 458180198#0 1052631409#0 5672290#0 5670873#0 -5670253#2 420899372#0 1205900284 1022822153#0 496986970#0 5672752#0 196117083#0 505582406#0 420892263#0 420892264#0 420892275#0 420892265#0 420892269#0 420892272#0 420892273#0 812949647#7 812949647#10 1061979013#0 420894352#0 1061979016#0 194920159 1425233036#0 965833823 1425233037#0 421852034 1425233038 68506907#0" />
  </vehicle>
  <vehicle id="veh_52" type="taxi" depart="96.5786580371553" departLane="best" departSpeed="random">
    <route edges="-5673372#1 5672515#3 -68668557#2 -421851200#2 -421851201#2 1030119892#0 1030119893#0 455125048#0 1030123278#0 670988060#0 670988060#3 1030123277#0 456409017#0 658583340#0 458166897#27" />
  </vehicle>
  <vehicle id="veh_53" type="delivery" depart="98.92251279852952" departLane="best" departSpeed="random">
    <route edges="5671577#0 46694752#0 169381962#0 226092571#0 978329305#0 169381960#0 978320983#0 978320981#0 264546995#0 169381965#0 968393462#0 1111706621 198595460#0 198595549#0 198924727#1 198595548 198924551#0" />
  </vehicle>
  <vehicle id="veh_54" type="bus" depart="101.84106028342492" departLane="best" departSpeed="random">
    <route edges="420904838#0 505777313#0 169267539#0 992144531#0 1156946159#0 46482603 46482602#0 46482602#2 846142552#0 1198594030#0 1027189508 1027189507#0 1049888072#0 420907903#0 420907906#0 1207834765 1376935153#0 1027189510#0 965833822#11 717625448#0 717625448#1 717625447#0 717625447#3 1165644579#0 496992867#0 496992868#0 1023238044 420281339#0 541331485#0 226041011#1 458180194#0 458166897#36 710571389#0 710571393#0 -375165665 375165664#0 993383311 710571391#2 375165500#0 375165500#3 375164212 46211836#0 1106167120#0 978320983#0 978320981#0 264546995#0 169381965#0" />
  </vehicle>
  <vehicle id="veh_55" type="car" depart="103.45965829622914" departLane="best" departSpeed="random">
    <route edges="1341933856#0 421852035 421852037 1186131871 1313054200 965833822#0 601733867#0 808190579#0 808190588#0 195743301#0 808190577#0 808190584#0 808190584#3 808190576 1343181788#0 195743297#0 1343181789#0 46525065#3 46525065#7 420890023#0 439801902 460065820 1211612936 420899373 -196116988#1 -420899371 5670253#0 5670874#0 5671574#0 198924587#0 964208970#0 458180199#0 458180199#3 5673461#3 671208358#16 46522160#9" />
  </vehicle>
  <vehicle id="veh_56" type="car" depart="104.12738399650644" departLane="best" departSpeed="random">
    <route edges="505582406#0 420892263#0 420892264#0 618990022#8 439933933#0 196117092#0 308322446#0" />
  </vehicle>
  <vehicle id="veh_57" type="car" depart="104.99826142756558" departLane="best" departSpeed="random">
    <route edges="1313071250#0 771939270#0 1313071249#0 46518732 884400281 169383516#0 46518731#0 46518731#4 1022790246#0 46518734#0 988977540 884400300 884400282 884400293 379843702#0 819074878 619280617#0 884400294#0 884400286#0 884400289#0 884400289#3 884400301#0 884400297#0 1029395781#0 169381962#0 710571392#8 169381963#3" />
  </vehicle>
  <vehicle id="veh_58" type="car" depart="106.24674137987498" departLane="best" departSpeed="random">
    <route edges="8028096 5669356 46492012 1053371047 36807165 46492638#0 273895449#0 1320549615#0 167922077#0 -1320290376#1 -542259076#1 -1321771943#2 125480075#0 1198594026#0 1207834766 1198594029#0 194926851#0 1198594030#0 1027189508 1027189507#0 1049888072#0 420907903#0 420907906#0 1207834765 1376935153#0 1027189510#0 1027189509#2 420890028 420890024#0 420890025#0 420890029#0 439933933#0 196117092#0 420890023#0 439801902 460065820 1211612936 420899373 -196116988#1 -420899371 5670253#0 5670874#0 5671574#0 198924587#0 964208970#0 458180199#0 458180199#3 458180199#6 458180199#8 458180199#11 195743183#0 195743183#3 195743183#6 543905773#0 686125782#7 686125782#10 686125782#13 686125782#16 686125782#19 686125782#22 5670818#7" />
  </vehicle>