<?xml version="1.0" encoding="UTF-8"?>

<!-- generated on 2025-09-02 06:29:10 by Eclipse SUMO netconvert Version 1.24.0
<netconvertConfiguration xmlns:xsi="http://www.w3.org/2001/XMLSchema-instance" xsi:noNamespaceSchemaLocation="http://sumo.dlr.de/xsd/netconvertConfiguration.xsd">

    <input>
        <osm-files value="data/sumo\manhattan_midtown.osm"/>
    </input>

    <output>
        <output-file value="data/sumo\manhattan.net.xml"/>
        <output.street-names value="true"/>
        <output.original-names value="true"/>
    </output>

    <projection>
        <proj.utm value="true"/>
    </projection>

    <processing>
        <geometry.remove value="true"/>
        <lefthand value="false"/>
    </processing>

    <building_defaults>
        <default.lanewidth value="3.5"/>
        <default.speed value="13.89"/>
        <default.sidewalk-width value="3.0"/>
    </building_defaults>

    <tls_building>
        <tls.guess value="true"/>
        <tls.join value="true"/>
        <tls.guess-signals value="true"/>
        <tls.default-type value="actuated"/>
    </tls_building>

    <edge_removal>
        <remove-edges.by-vclass value="rail,ship,aircraft"/>
        <keep-edges.components value="1"/>
        <remove-edges.isolated value="true"/>
    </edge_removal>

    <junctions>
        <junctions.join value="true"/>
        <junctions.corner-detail value="5"/>
        <junctions.limit-turn-speed value="5.5"/>
        <rectangular-lane-cut value="true"/>
        <check-lane-foes.all value="true"/>
    </junctions>

    <pedestrian>
        <crossings.guess value="true"/>
        <walkingareas value="true"/>
    </pedestrian>

    <report>
        <verbose value="true"/>
    </report>

</netconvertConfiguration>
-->

<net version="1.20" junctionCornerDetail="5" rectangularLaneCut="true" walkingareas="true" limitTurnSpeed="5.50" checkLaneFoesAll="1" xmlns:xsi="http://www.w3.org/2001/XMLSchema-instance" xsi:noNamespaceSchemaLocation="http://sumo.dlr.de/xsd/net_file.xsd">

    <location netOffset="-584628.03,-4510971.28" convBoundary="0.00,0.00,3141.99,2722.87" origBoundary="-74.008301,40.745179,-73.960182,40.769918" projParameter="+proj=utm +zone=18 +ellps=WGS84 +datum=WGS84 +units=m +no_defs"/>

    <type id="highway.primary" priority="12" numLanes="2" speed="27.78" disallow="tram rail_urban rail rail_electric rail_fast ship container cable_car subway aircraft wheelchair scooter drone" oneway="0"/>
    <type id="highway.residential" priority="3" numLanes="1" speed="13.89" disallow="tram rail_urban rail rail_electric rail_fast ship container cable_car subway aircraft wheelchair scooter drone" oneway="0"/>
    <type id="highway.secondary" priority="11" numLanes="1" speed="27.78" disallow="tram rail_urban rail rail_electric rail_fast ship container cable_car subway aircraft wheelchair scooter drone" oneway="0"/>
    <type id="highway.service" priority="1" numLanes="1" speed="5.56" allow="pedestrian delivery bicycle" oneway="0"/>
    <type id="highway.tertiary" priority="10" numLanes="1" speed="22.22" disallow="tram rail_urban rail rail_electric rail_fast ship container cable_car subway aircraft wheelchair scooter drone" oneway="0"/>
    <type id="highway.trunk" priority="13" numLanes="2" speed="27.78" disallow="pedestrian bicycle tram rail_urban rail rail_electric rail_fast ship container cable_car subway aircraft wheelchair scooter drone" oneway="0"/>
    <type id="highway.unclassified" priority="4" numLanes="1" speed="13.89" disallow="tram rail_urban rail rail_electric rail_fast ship container cable_car subway aircraft wheelchair scooter drone" oneway="0"/>

    <edge id=":10691086244_w0" function="walkingarea">
        <lane id=":10691086244_w0_0" index="0" allow="pedestrian" speed="2.78" length="0.10" width="3.50" shape="260.63,605.67 251.39,610.67"/>
    </edge>
    <edge id=":10691086259_0" function="internal">
        <lane id=":10691086259_0_0" index="0" disallow="tram rail_urban rail rail_electric rail_fast ship container cable_car subway aircraft wheelchair scooter drone" speed="11.18" length="0.30" width="3.50" shape="754.32,1274.09 754.06,1274.23"/>
        <lane id=":10691086259_0_1" index="1" disallow="tram rail_urban rail rail_electric rail_fast ship container cable_car subway aircraft wheelchair scooter drone" speed="11.18" length="0.30" width="3.50" shape="752.66,1271.01 752.40,1271.15"/>
    </edge>
    <edge id=":10691086259_2" function="internal">
        <lane id=":10691086259_2_0" index="0" disallow="tram rail_urban rail rail_electric rail_fast ship container cable_car subway aircraft wheelchair scooter drone" speed="11.18" length="0.30" width="3.50" shape="749.07,1264.99 749.34,1264.85"/>
        <lane id=":10691086259_2_1" index="1" disallow="tram rail_urban rail rail_electric rail_fast ship container cable_car subway aircraft wheelchair scooter drone" speed="11.18" length="0.30" width="3.50" shape="750.73,1268.07 751.00,1267.93"/>
    </edge>
    <edge id=":10691086259_w0" function="walkingarea">
        <lane id=":10691086259_w0_0" index="0" allow="pedestrian" speed="2.78" length="7.10" width="14.00" shape="755.15,1275.63 748.51,1263.30 748.24,1263.45 754.89,1275.77"/>
    </edge>
    <edge id=":10691086260_0" function="internal">
        <lane id=":10691086260_0_0" index="0" disallow="tram rail_urban rail rail_electric rail_fast ship container cable_car subway aircraft wheelchair scooter drone" speed="11.18" length="0.10" width="3.50" shape="770.49,1265.38 770.49,1265.38"/>
        <lane id=":10691086260_0_1" index="1" disallow="tram rail_urban rail rail_electric rail_fast ship container cable_car subway aircraft wheelchair scooter drone" speed="11.18" length="0.10" width="3.50" shape="768.83,1262.30 768.83,1262.30"/>
    </edge>
    <edge id=":10691086260_2" function="internal">
        <lane id=":10691086260_2_0" index="0" disallow="tram rail_urban rail rail_electric rail_fast ship container cable_car subway aircraft wheelchair scooter drone" speed="11.18" length="0.10" width="3.50" shape="765.51,1256.13 765.51,1256.13"/>
        <lane id=":10691086260_2_1" index="1" disallow="tram rail_urban rail rail_electric rail_fast ship container cable_car subway aircraft wheelchair scooter drone" speed="11.18" length="0.10" width="3.50" shape="767.17,1259.22 767.17,1259.22"/>
    </edge>
    <edge id=":10691086260_w0" function="walkingarea">
        <lane id=":10691086260_w0_0" index="0" allow="pedestrian" speed="2.78" length="7.00" width="14.00" shape="771.32,1266.92 764.68,1254.59 771.32,1266.92"/>
    </edge>
    <edge id=":10691086262_0" function="internal">
        <lane id=":10691086262_0_0" index="0" disallow="tram rail_urban rail rail_electric rail_fast ship container cable_car subway aircraft wheelchair scooter drone" speed="11.18" length="0.33" width="3.50" shape="478.27,698.32 477.97,698.49"/>
        <lane id=":10691086262_0_1" index="1" disallow="tram rail_urban rail rail_electric rail_fast ship container cable_car subway aircraft wheelchair scooter drone" speed="11.18" length="0.33" width="3.50" shape="476.61,695.25 476.33,695.39"/>
    </edge>
    <edge id=":10691086262_2" function="internal">
        <lane id=":10691086262_2_0" index="0" disallow="tram rail_urban rail rail_electric rail_fast ship container cable_car subway aircraft wheelchair scooter drone" speed="11.18" length="0.26" width="3.50" shape="473.06,689.21 473.28,689.09"/>
        <lane id=":10691086262_2_1" index="1" disallow="tram rail_urban rail rail_electric rail_fast ship container cable_car subway aircraft wheelchair scooter drone" speed="11.18" length="0.26" width="3.50" shape="474.70,692.30 474.94,692.17"/>
    </edge>
    <edge id=":10691086262_w0" function="walkingarea">
        <lane id=":10691086262_w0_0" index="0" allow="pedestrian" speed="2.78" length="7.10" width="14.00" shape="479.11,699.86 472.44,687.55 472.24,687.66 478.79,700.03"/>
    </edge>
    <edge id=":10691086263_0" function="internal">
        <lane id=":10691086263_0_0" index="0" disallow="tram rail_urban rail rail_electric rail_fast ship container cable_car subway aircraft wheelchair scooter drone" speed="11.18" length="0.10" width="3.50" shape="463.53,706.13 463.53,706.13"/>
        <lane id=":10691086263_0_1" index="1" disallow="tram rail_urban rail rail_electric rail_fast ship container cable_car subway aircraft wheelchair scooter drone" speed="11.18" length="0.10" width="3.50" shape="461.90,703.04 461.90,703.04"/>
    </edge>
    <edge id=":10691086263_2" function="internal">
        <lane id=":10691086263_2_0" index="0" disallow="tram rail_urban rail rail_electric rail_fast ship container cable_car subway aircraft wheelchair scooter drone" speed="11.18" length="0.10" width="3.50" shape="458.62,696.85 458.62,696.85"/>
        <lane id=":10691086263_2_1" index="1" disallow="tram rail_urban rail rail_electric rail_fast ship container cable_car subway aircraft wheelchair scooter drone" speed="11.18" length="0.10" width="3.50" shape="460.26,699.95 460.26,699.95"/>
    </edge>
    <edge id=":10691086263_w0" function="walkingarea">
        <lane id=":10691086263_w0_0" index="0" allow="pedestrian" speed="2.78" length="7.00" width="14.00" shape="464.35,707.68 457.80,695.31 464.35,707.68"/>
    </edge>
    <edge id=":10691086265_0" function="internal">
        <lane id=":10691086265_0_0" index="0" disallow="pedestrian tram rail_urban rail rail_electric rail_fast ship container cable_car subway aircraft wheelchair scooter drone" speed="11.18" length="0.29" width="3.50" shape="252.76,817.22 252.51,817.35"/>
        <lane id=":10691086265_0_1" index="1" disallow="pedestrian tram rail_urban rail rail_electric rail_fast ship container cable_car subway aircraft wheelchair scooter drone" speed="11.18" length="0.29" width="3.50" shape="251.13,814.12 250.87,814.26"/>
    </edge>
    <edge id=":10691086265_2" function="internal">
        <lane id=":10691086265_2_0" index="0" disallow="pedestrian tram rail_urban rail rail_electric rail_fast ship container cable_car subway aircraft wheelchair scooter drone" speed="11.18" length="0.31" width="3.50" shape="247.61,808.06 247.89,807.92"/>
        <lane id=":10691086265_2_1" index="1" disallow="pedestrian tram rail_urban rail rail_electric rail_fast ship container cable_car subway aircraft wheelchair scooter drone" speed="11.18" length="0.31" width="3.50" shape="249.24,811.16 249.51,811.02"/>
    </edge>
    <edge id=":10693951249_0" function="internal">
        <lane id=":10693951249_0_0" index="0" disallow="tram rail_urban rail rail_electric rail_fast ship container cable_car subway aircraft wheelchair scooter drone" speed="27.78" length="0.10" width="3.50" shape="1571.05,1466.50 1571.05,1466.50"/>
    </edge>
    <edge id=":10778981822_w0" function="walkingarea">
        <lane id=":10778981822_w0_0" index="0" allow="pedestrian" speed="2.78" length="0.10" width="3.50" shape="1664.83,1780.64 1661.48,1774.50"/>
    </edge>
    <edge id=":11337295606_w0" function="walkingarea">
        <lane id=":11337295606_w0_0" index="0" allow="pedestrian" speed="2.78" length="0.10" width="3.50" shape="1813.97,715.10 1823.19,710.08"/>
    </edge>
    <edge id=":11507273100_0" function="internal">
        <lane id=":11507273100_0_0" index="0" disallow="tram rail_urban rail rail_electric rail_fast ship container cable_car subway aircraft wheelchair scooter drone" speed="11.18" length="0.30" width="3.50" shape="1622.11,792.83 1622.36,792.69"/>
        <lane id=":11507273100_0_1" index="1" disallow="tram rail_urban rail rail_electric rail_fast ship container cable_car subway aircraft wheelchair scooter drone" speed="11.18" length="0.30" width="3.50" shape="1623.74,795.92 1624.02,795.78"/>
    </edge>
    <edge id=":11507273100_w0" function="walkingarea">
        <lane id=":11507273100_w0_0" index="0" allow="pedestrian" speed="2.78" length="0.29" width="3.50" shape="1624.84,797.32 1621.54,791.15 1621.29,791.28 1624.56,797.47"/>
    </edge>
    <edge id=":11507273101_0" function="internal">
        <lane id=":11507273101_0_0" index="0" disallow="tram rail_urban rail rail_electric rail_fast ship container cable_car subway aircraft wheelchair scooter drone" speed="11.18" length="0.12" width="3.50" shape="1598.57,805.27 1598.74,805.18"/>
        <lane id=":11507273101_0_1" index="1" disallow="tram rail_urban rail rail_electric rail_fast ship container cable_car subway aircraft wheelchair scooter drone" speed="11.18" length="0.12" width="3.50" shape="1600.32,808.30 1600.37,808.27"/>
    </edge>
    <edge id=":11507273101_w0" function="walkingarea">
        <lane id=":11507273101_w0_0" index="0" allow="pedestrian" speed="2.78" length="0.19" width="3.50" shape="1601.24,809.79 1597.97,803.61 1597.65,803.78 1601.14,809.85"/>
    </edge>
    <edge id=":11507279904_w0" function="walkingarea">
        <lane id=":11507279904_w0_0" index="0" allow="pedestrian" speed="2.78" length="0.10" width="3.50" shape="1810.44,972.47 1813.77,978.63"/>
    </edge>
    <edge id=":12181374911_w0" function="walkingarea">
        <lane id=":12181374911_w0_0" index="0" allow="pedestrian" speed="2.78" length="0.10" width="3.50" shape="1250.79,13.73 1259.97,8.64"/>
    </edge>
    <edge id=":12181374925_0" function="internal">
        <lane id=":12181374925_0_0" index="0" disallow="tram rail_urban rail rail_electric rail_fast ship container cable_car subway aircraft wheelchair scooter drone" speed="3.82" length="5.11" width="3.50" shape="1345.65,219.70 1347.22,219.83 1348.03,220.39 1348.06,221.36 1347.34,222.76"/>
    </edge>
    <edge id=":12181374925_w0" function="walkingarea">
        <lane id=":12181374925_w0_0" index="0" allow="pedestrian" speed="2.78" length="10.50" width="14.00" shape="1346.49,221.23 1349.86,227.36 1343.12,215.10 1346.49,221.23"/>
    </edge>
    <edge id=":12181374932_0" function="internal">
        <lane id=":12181374932_0_0" index="0" disallow="tram rail_urban rail rail_electric rail_fast ship container cable_car subway aircraft wheelchair scooter drone" speed="11.18" length="0.10" width="3.50" shape="1425.24,363.27 1425.24,363.27"/>
        <lane id=":12181374932_0_1" index="1" disallow="tram rail_urban rail rail_electric rail_fast ship container cable_car subway aircraft wheelchair scooter drone" speed="11.18" length="0.10" width="3.50" shape="1426.90,366.35 1426.90,366.35"/>
    </edge>
    <edge id=":12181374932_w0" function="walkingarea">
        <lane id=":12181374932_w0_0" index="0" allow="pedestrian" speed="2.78" length="0.10" width="3.50" shape="1427.73,367.89 1424.41,361.73 1427.73,367.89"/>
    </edge>
    <edge id=":12181374934_w0" function="walkingarea">
        <lane id=":12181374934_w0_0" index="0" allow="pedestrian" speed="2.78" length="0.10" width="3.50" shape="1448.70,348.62 1452.02,354.78"/>
    </edge>
    <edge id=":12181374937_w0" function="walkingarea">
        <lane id=":12181374937_w0_0" index="0" allow="pedestrian" speed="2.78" length="0.10" width="3.50" shape="1501.95,407.08 1506.99,416.30"/>
    </edge>
    <edge id=":12181374941_0" function="internal">
        <lane id=":12181374941_0_0" index="0" disallow="tram rail_urban rail rail_electric rail_fast ship container cable_car subway aircraft wheelchair scooter drone" speed="11.18" length="0.29" width="3.50" shape="1483.68,427.04 1483.39,427.20"/>
        <lane id=":12181374941_0_1" index="1" disallow="tram rail_urban rail rail_electric rail_fast ship container cable_car subway aircraft wheelchair scooter drone" speed="11.18" length="0.29" width="3.50" shape="1482.00,423.97 1481.74,424.11"/>
        <lane id=":12181374941_0_2" index="2" disallow="tram rail_urban rail rail_electric rail_fast ship container cable_car subway aircraft wheelchair scooter drone" speed="11.18" length="0.29" width="3.50" shape="1480.32,420.90 1480.10,421.02"/>
    </edge>
    <edge id=":12181374941_w0" function="walkingarea">
        <lane id=":12181374941_w0_0" index="0" allow="pedestrian" speed="2.78" length="0.33" width="3.50" shape="1484.52,428.58 1479.49,419.36 1479.28,419.47 1484.21,428.74"/>
    </edge>
    <edge id=":12181374944_0" function="internal">
        <lane id=":12181374944_0_0" index="0" disallow="tram rail_urban rail rail_electric rail_fast ship container cable_car subway aircraft wheelchair scooter drone" speed="11.18" length="0.27" width="3.50" shape="1498.34,501.61 1498.54,501.50"/>
        <lane id=":12181374944_0_1" index="1" disallow="tram rail_urban rail rail_electric rail_fast ship container cable_car subway aircraft wheelchair scooter drone" speed="11.18" length="0.27" width="3.50" shape="1499.99,504.70 1500.27,504.55"/>
    </edge>
    <edge id=":12181374944_w0" function="walkingarea">
        <lane id=":12181374944_w0_0" index="0" allow="pedestrian" speed="2.78" length="0.23" width="3.50" shape="1501.13,506.07 1497.68,499.98 1497.51,500.07 1500.82,506.24"/>
    </edge>
    <edge id=":12181374945_w0" function="walkingarea">
        <lane id=":12181374945_w0_0" index="0" allow="pedestrian" speed="2.78" length="0.10" width="3.50" shape="1521.52,486.46 1524.97,492.55"/>
    </edge>
    <edge id=":12181374957_w0" function="walkingarea">
        <lane id=":12181374957_w0_0" index="0" allow="pedestrian" speed="2.78" length="0.10" width="3.50" shape="1574.11,639.38 1577.40,645.56"/>
    </edge>
    <edge id=":12463559806_0" function="internal">
        <lane id=":12463559806_0_0" index="0" disallow="tram rail_urban rail rail_electric rail_fast ship container cable_car subway aircraft wheelchair scooter drone" speed="6.62" length="9.28" width="3.50" shape="2027.08,762.67 2028.60,764.72 2030.40,765.79 2032.50,765.89 2034.88,765.01"/>
    </edge>
    <edge id=":12463559806_1" function="internal">
        <lane id=":12463559806_1_0" index="0" disallow="tram rail_urban rail rail_electric rail_fast ship container cable_car subway aircraft wheelchair scooter drone" speed="11.18" length="11.51" width="3.50" shape="2027.08,762.67 2032.55,772.80"/>
        <lane id=":12463559806_1_1" index="1" disallow="tram rail_urban rail rail_electric rail_fast ship container cable_car subway aircraft wheelchair scooter drone" speed="11.18" length="11.51" width="3.50" shape="2024.00,764.34 2029.47,774.46"/>
        <lane id=":12463559806_1_2" index="2" disallow="tram rail_urban rail rail_electric rail_fast ship container cable_car subway aircraft wheelchair scooter drone" speed="11.18" length="11.51" width="3.50" shape="2020.92,766.00 2026.40,776.12"/>
        <lane id=":12463559806_1_3" index="3" disallow="tram rail_urban rail rail_electric rail_fast ship container cable_car subway aircraft wheelchair scooter drone" speed="11.18" length="11.51" width="3.50" shape="2017.84,767.66 2023.32,777.79"/>
        <lane id=":12463559806_1_4" index="4" disallow="tram rail_urban rail rail_electric rail_fast ship container cable_car subway aircraft wheelchair scooter drone" speed="11.18" length="11.51" width="3.50" shape="2014.77,769.33 2020.24,779.45"/>
    </edge>
    <edge id=":12463559806_6" function="internal">
        <lane id=":12463559806_6_0" index="0" disallow="tram rail_urban rail rail_electric rail_fast ship container cable_car subway aircraft wheelchair scooter drone" speed="13.89" length="25.50" width="3.50" shape="2012.44,777.11 2034.88,765.01"/>
    </edge>
    <edge id=":12463559806_7" function="internal">
        <lane id=":12463559806_7_0" index="0" disallow="tram rail_urban rail rail_electric rail_fast ship container cable_car subway aircraft wheelchair scooter drone" speed="8.33" length="15.35" width="3.50" shape="2012.44,777.11 2017.52,774.78 2021.54,773.84 2024.50,774.29 2026.40,776.12"/>
        <lane id=":12463559806_7_1" index="1" disallow="tram rail_urban rail rail_electric rail_fast ship container cable_car subway aircraft wheelchair scooter drone" speed="7.50" length="12.23" width="3.50" shape="2012.44,777.11 2016.17,775.51 2019.23,775.09 2021.61,775.85 2023.32,777.79"/>
        <lane id=":12463559806_7_2" index="2" disallow="tram rail_urban rail rail_electric rail_fast ship container cable_car subway aircraft wheelchair scooter drone" speed="6.62" length="9.28" width="3.50" shape="2012.44,777.11 2014.82,776.24 2016.92,776.33 2018.72,777.41 2020.24,779.45"/>
    </edge>
    <edge id=":12463559806_w0" function="walkingarea">
        <lane id=":12463559806_w0_0" index="0" allow="pedestrian" speed="2.78" length="15.73" width="3.50" shape="2018.70,780.28 2034.09,771.96 2033.43,769.80 2033.55,768.85 2033.97,768.00 2034.69,767.23 2035.71,766.55 2034.05,763.47 2031.88,764.13 2030.93,764.01 2030.07,763.59 2029.30,762.87 2028.62,761.84 2013.23,770.16 2013.89,772.33 2013.77,773.27 2013.35,774.13 2012.63,774.90 2011.61,775.57 2013.27,778.65 2015.44,777.99 2016.39,778.11 2017.25,778.53 2018.02,779.26"/>
    </edge>
    <edge id=":12834723220_0" function="internal">
        <lane id=":12834723220_0_0" index="0" disallow="tram rail_urban rail rail_electric rail_fast ship container cable_car subway aircraft wheelchair scooter drone" speed="11.18" length="0.30" width="5.00" shape="2299.93,1986.85 2300.20,1986.71"/>
        <lane id=":12834723220_0_1" index="1" disallow="tram rail_urban rail rail_electric rail_fast ship container cable_car subway aircraft wheelchair scooter drone" speed="11.18" length="0.30" width="5.00" shape="2302.30,1991.25 2302.56,1991.12"/>
    </edge>
    <edge id=":12834723220_w0" function="walkingarea">
        <lane id=":12834723220_w0_0" index="0" allow="pedestrian" speed="2.78" length="0.31" width="5.00" shape="2303.74,1993.32 2299.02,1984.50 2298.74,1984.65 2303.49,1993.45"/>
    </edge>
    <edge id=":12834723227_0" function="internal">
        <lane id=":12834723227_0_0" index="0" disallow="tram rail_urban rail rail_electric rail_fast ship container cable_car subway aircraft wheelchair scooter drone" speed="3.82" length="5.11" width="3.50" shape="2267.73,1822.27 2266.16,1822.13 2265.36,1821.56 2265.33,1820.59 2266.07,1819.19"/>
    </edge>
    <edge id=":12834723227_w0" function="walkingarea">
        <lane id=":12834723227_w0_0" index="0" allow="pedestrian" speed="2.78" length="10.50" width="14.00" shape="2266.90,1820.73 2263.58,1814.57 2270.21,1826.90 2266.90,1820.73"/>
    </edge>
    <edge id=":12834723228_0" function="internal">
        <lane id=":12834723228_0_0" index="0" disallow="tram rail_urban rail rail_electric rail_fast ship container cable_car subway aircraft wheelchair scooter drone" speed="3.82" length="5.11" width="3.50" shape="2221.96,1842.96 2223.53,1843.10 2224.34,1843.66 2224.37,1844.64 2223.63,1846.04"/>
    </edge>
    <edge id=":12834723228_w0" function="walkingarea">
        <lane id=":12834723228_w0_0" index="0" allow="pedestrian" speed="2.78" length="10.50" width="14.00" shape="2222.80,1844.50 2226.13,1850.65 2219.46,1838.34 2222.80,1844.50"/>
    </edge>
    <edge id=":12834723232_0" function="internal">
        <lane id=":12834723232_0_0" index="0" disallow="tram rail_urban rail rail_electric rail_fast ship container cable_car subway aircraft wheelchair scooter drone" speed="13.89" length="0.29" width="3.50" shape="2182.28,1767.86 2182.52,1767.73"/>
        <lane id=":12834723232_0_1" index="1" disallow="tram rail_urban rail rail_electric rail_fast ship container cable_car subway aircraft wheelchair scooter drone" speed="13.89" length="0.29" width="3.50" shape="2183.92,1770.95 2184.19,1770.80"/>
    </edge>
    <edge id=":12834723232_w0" function="walkingarea">
        <lane id=":12834723232_w0_0" index="0" allow="pedestrian" speed="2.78" length="0.27" width="3.50" shape="2185.03,1772.34 2181.68,1766.19 2181.46,1766.31 2184.74,1772.50"/>
    </edge>
    <edge id=":12834723237_w0" function="walkingarea">
        <lane id=":12834723237_w0_0" index="0" allow="pedestrian" speed="2.78" length="0.10" width="3.50" shape="2104.14,1627.38 2107.47,1633.54"/>
    </edge>
    <edge id=":12834723255_w0" function="walkingarea">
        <lane id=":12834723255_w0_0" index="0" allow="pedestrian" speed="2.78" length="0.10" width="3.50" shape="1956.70,1344.79 1960.02,1350.95"/>
    </edge>
    <edge id=":12834723259_0" function="internal">
        <lane id=":12834723259_0_0" index="0" disallow="tram rail_urban rail rail_electric rail_fast ship container cable_car subway aircraft wheelchair scooter drone" speed="27.78" length="0.30" width="3.50" shape="1962.80,1257.89 1962.53,1258.04"/>
        <lane id=":12834723259_0_1" index="1" disallow="tram rail_urban rail rail_electric rail_fast ship container cable_car subway aircraft wheelchair scooter drone" speed="27.78" length="0.30" width="3.50" shape="1961.13,1254.82 1960.87,1254.96"/>
    </edge>
    <edge id=":12834723259_w0" function="walkingarea">
        <lane id=":12834723259_w0_0" index="0" allow="pedestrian" speed="2.78" length="0.31" width="3.50" shape="1963.64,1259.43 1960.29,1253.29 1960.04,1253.42 1963.36,1259.58"/>
    </edge>
    <edge id=":1815133244_0" function="internal">
        <lane id=":1815133244_0_0" index="0" disallow="tram rail_urban rail rail_electric rail_fast ship container cable_car subway aircraft wheelchair scooter drone" speed="27.78" length="0.30" width="3.50" shape="821.31,2234.14 821.04,2234.28"/>
        <lane id=":1815133244_0_1" index="1" disallow="tram rail_urban rail rail_electric rail_fast ship container cable_car subway aircraft wheelchair scooter drone" speed="27.78" length="0.30" width="3.50" shape="819.63,2231.06 819.38,2231.20"/>
    </edge>
    <edge id=":1815133244_w0" function="walkingarea">
        <lane id=":1815133244_w0_0" index="0" allow="pedestrian" speed="2.78" length="0.31" width="3.50" shape="822.14,2235.67 818.80,2229.53 818.54,2229.66 821.87,2235.82"/>
    </edge>
    <edge id=":1825841704_w0" function="walkingarea">
        <lane id=":1825841704_w0_0" index="0" allow="pedestrian" speed="2.78" length="0.10" width="3.50" shape="1286.35,2493.82 1274.73,2501.63"/>
    </edge>
    <edge id=":2649092010_0" function="internal">
        <lane id=":2649092010_0_0" index="0" disallow="pedestrian tram rail_urban rail rail_electric rail_fast ship container cable_car subway aircraft wheelchair scooter drone" speed="11.18" length="0.21" width="3.50" shape="239.20,824.38 239.05,824.46"/>
        <lane id=":2649092010_0_1" index="1" disallow="pedestrian tram rail_urban rail rail_electric rail_fast ship container cable_car subway aircraft wheelchair scooter drone" speed="11.18" length="0.21" width="3.50" shape="237.57,821.28 237.35,821.40"/>
    </edge>
    <edge id=":2649092010_2" function="internal">
        <lane id=":2649092010_2_0" index="0" disallow="pedestrian tram rail_urban rail rail_electric rail_fast ship container cable_car subway aircraft wheelchair scooter drone" speed="11.18" length="0.35" width="3.50" shape="233.96,815.27 234.30,815.09"/>
        <lane id=":2649092010_2_1" index="1" disallow="pedestrian tram rail_urban rail rail_electric rail_fast ship container cable_car subway aircraft wheelchair scooter drone" speed="11.18" length="0.35" width="3.50" shape="235.65,818.34 235.93,818.19"/>
    </edge>
    <edge id=":2711029280_0" function="internal">
        <lane id=":2711029280_0_0" index="0" disallow="tram rail_urban rail rail_electric rail_fast ship container cable_car subway aircraft wheelchair scooter drone" speed="6.61" length="9.27" width="3.50" shape="2925.72,1475.68 2923.68,1477.19 2922.61,1478.99 2922.51,1481.08 2923.40,1483.47"/>
        <lane id=":2711029280_0_1" index="1" disallow="tram rail_urban rail rail_electric rail_fast ship container cable_car subway aircraft wheelchair scooter drone" speed="7.49" length="12.23" width="3.50" shape="2925.72,1475.68 2922.33,1477.91 2920.30,1480.23 2919.63,1482.64 2920.32,1485.13"/>
    </edge>
    <edge id=":2711029280_2" function="internal">
        <lane id=":2711029280_2_0" index="0" disallow="tram rail_urban rail rail_electric rail_fast ship container cable_car subway aircraft wheelchair scooter drone" speed="11.18" length="25.51" width="3.50" shape="2925.72,1475.68 2903.27,1487.78"/>
        <lane id=":2711029280_2_1" index="1" disallow="tram rail_urban rail rail_electric rail_fast ship container cable_car subway aircraft wheelchair scooter drone" speed="11.18" length="25.51" width="3.50" shape="2924.07,1472.60 2901.61,1484.70"/>
        <lane id=":2711029280_2_2" index="2" disallow="tram rail_urban rail rail_electric rail_fast ship container cable_car subway aircraft wheelchair scooter drone" speed="11.18" length="25.51" width="3.50" shape="2922.41,1469.51 2899.95,1481.62"/>
    </edge>
    <edge id=":2711029280_5" function="internal">
        <lane id=":2711029280_5_0" index="0" disallow="tram rail_urban rail rail_electric rail_fast ship container cable_car subway aircraft wheelchair scooter drone" speed="3.82" length="1.58" width="3.50" shape="2922.41,1469.51 2920.84,1469.37"/>
    </edge>
    <edge id=":2711029280_13" function="internal">
        <lane id=":2711029280_13_0" index="0" disallow="tram rail_urban rail rail_electric rail_fast ship container cable_car subway aircraft wheelchair scooter drone" speed="3.82" length="3.53" width="3.50" shape="2920.84,1469.37 2920.04,1468.80 2920.01,1467.82 2920.75,1466.43"/>
    </edge>
    <edge id=":2711029280_6" function="internal">
        <lane id=":2711029280_6_0" index="0" disallow="tram rail_urban rail rail_electric rail_fast ship container cable_car subway aircraft wheelchair scooter drone" speed="11.18" length="25.73" width="3.50" shape="2896.62,1475.46 2901.99,1471.94 2906.07,1468.37 2910.63,1464.55 2917.44,1460.27"/>
        <lane id=":2711029280_6_1" index="1" disallow="tram rail_urban rail rail_electric rail_fast ship container cable_car subway aircraft wheelchair scooter drone" speed="11.18" length="25.73" width="3.50" shape="2898.28,1478.54 2903.65,1475.02 2907.73,1471.45 2912.29,1467.63 2919.09,1463.35"/>