<?xml version='1.0' encoding='utf-8'?>
<routes><vType id="car" color="0.8,0.8,0.8" length="4.5" accel="2.6" decel="4.5" sigma="0.5" /><vType id="taxi" color="1,1,0" length="4.5" accel="2.6" decel="4.5" sigma="0.5" /><vType id="ev_sedan" color="0,1,0" length="4.8" accel="2.6" decel="4.5" sigma="0.5"><param key="has.battery.device" value="true" /></vType><vType id="ev_suv" color="0,0.8,0.2" length="5.2" accel="2.6" decel="4.5" sigma="0.5"><param key="has.battery.device" value="true" /></vType><trip id="veh_0" type="car" depart="0.0" from="-420509471#2" to="127693103#1" /><trip id="veh_1" type="ev_suv" depart="3.0" from="384649121#1" to="455122830" /><trip id="veh_2" type="car" depart="6.0" from="420356172" to="464516471#0" /><trip id="veh_3" type="ev_sedan" depart="9.0" from="803047267" to="500717399" /><trip id="veh_4" type="car" depart="12.0" from="382740985#0" to="-525729008#2" /><trip id="veh_5" type="car" depart="15.0" from="-420509471#1" to="384178816#1" /><trip id="veh_6" type="ev_sedan" depart="18.0" from="458180187#2" to="420499931" /><trip id="veh_7" type="car" depart="21.0" from="308322447#0" to="438385431#3" /><trip id="veh_8" type="ev_sedan" depart="24.0" from="-420509471#2" to="68668557" /><trip id="veh_9" type="car" depart="27.0" from="420907906" to="388696207#1" /></routes>