<?xml version='1.0' encoding='utf-8'?>
<routes><vType id="car" color="0.8,0.8,0.8" length="4.5" /><vType id="ev" color="0,1,0" length="4.8" /><trip id="veh_0" type="car" from="388696207#0" to="1211049194" depart="0.0" /><trip id="veh_1" type="car" from="812949648" to="68668557" depart="3.0" /><trip id="veh_2" type="car" from="421850829" to="46481747" depart="6.0" /><trip id="veh_3" type="ev" from="195743208#2" to="458166892#1" depart="9.0" /><trip id="veh_4" type="car" from="458166897#10" to="511924053" depart="12.0" /><trip id="veh_5" type="car" from="195743211" to="464515259#0" depart="15.0" /><trip id="veh_6" type="car" from="420904658" to="195743190" depart="18.0" /><trip id="veh_7" type="ev" from="464543615" to="814278018" depart="21.0" /><trip id="veh_8" type="ev" from="700951339" to="-420509471#1" depart="24.0" /><trip id="veh_9" type="ev" from="226041030" to="968513229" depart="27.0" /></routes>