<?xml version="1.0" encoding="UTF-8"?>
<additional>
    <!-- Empty - SUMO will use default traffic light programs -->
</additional>