<?xml version='1.0' encoding='utf-8'?>
<additional><vType id="car" vClass="passenger" color="0.8,0.8,0.8" length="4.5" minGap="2.5" maxSpeed="13.89" accel="2.6" decel="4.5" sigma="0.5" /><vType id="taxi" vClass="taxi" color="1,1,0" length="4.5" minGap="2.0" maxSpeed="16.67" accel="2.8" decel="5.0" sigma="0.4" /><vType id="bus" vClass="bus" color="0,0,1" length="12" minGap="3.0" maxSpeed="11.11" accel="1.5" decel="4.0" sigma="0.3" /><vType id="ev_sedan" vClass="passenger" color="0,1,0" length="4.8" minGap="2.5" maxSpeed="16.67" accel="3.5" decel="5.5" sigma="0.3" emissionClass="Zero"><param key="has.battery.device" value="true" /><param key="maximumBatteryCapacity" value="75000" /><param key="actualBatteryCapacity" value="60000" /><param key="maximumPower" value="150000" /><param key="vehicleMass" value="2000" /></vType><vType id="ev_suv" vClass="passenger" color="0,0.8,0.2" length="5.2" minGap="3.0" maxSpeed="16.67" accel="3.0" decel="5.0" sigma="0.3" emissionClass="Zero"><param key="has.battery.device" value="true" /><param key="maximumBatteryCapacity" value="100000" /><param key="actualBatteryCapacity" value="70000" /><param key="maximumPower" value="200000" /><param key="vehicleMass" value="2500" /></vType><vType id="delivery" accel="2.0" decel="4.0" length="6.0" minGap="3.0" maxSpeed="13.89" vClass="delivery" color="0.6,0.4,0.2" /></additional>