<?xml version="1.0" encoding="UTF-8"?>
<configuration>
    <input>
        <net-file value="manhattan.net.xml"/>
        <route-files value="manhattan.rou.xml"/>
        <additional-files value="manhattan.add.xml"/>
    </input>
    <time>
        <begin value="0"/>
        <end value="3600"/>
        <step-length value="0.1"/>
    </time>
    <processing>
        <ignore-route-errors value="true"/>
    </processing>
</configuration>