<?xml version='1.0' encoding='UTF-8'?>
<network><nodes><node id="n_0_0" x="-8215110.000000001" y="4522695.0" type="traffic_light" /><node id="n_0_1" x="-8215110.000000001" y="4522870.263157895" type="priority" /><node id="n_0_2" x="-8215110.000000001" y="4523045.52631579" type="traffic_light" /><node id="n_0_3" x="-8215110.000000001" y="4523220.7894736845" type="priority" /><node id="n_0_4" x="-8215110.000000001" y="4523396.052631578" type="traffic_light" /><node id="n_0_5" x="-8215110.000000001" y="4523571.315789473" type="priority" /><node id="n_0_6" x="-8215110.000000001" y="4523746.578947368" type="traffic_light" /><node id="n_0_7" x="-8215110.000000001" y="4523921.842105263" type="priority" /><node id="n_0_8" x="-8215110.000000001" y="4524097.105263158" type="traffic_light" /><node id="n_0_9" x="-8215110.000000001" y="4524272.368421053" type="priority" /><node id="n_0_10" x="-8215110.000000001" y="4524447.6315789465" type="traffic_light" /><node id="n_0_11" x="-8215110.000000001" y="4524622.894736841" type="priority" /><node id="n_0_12" x="-8215110.000000001" y="4524798.157894736" type="traffic_light" /><node id="n_0_13" x="-8215110.000000001" y="4524973.421052631" type="priority" /><node id="n_0_14" x="-8215110.000000001" y="4525148.684210526" type="traffic_light" /><node id="n_0_15" x="-8215110.000000001" y="4525323.947368422" type="priority" /><node id="n_0_16" x="-8215110.000000001" y="4525499.2105263155" type="traffic_light" /><node id="n_0_17" x="-8215110.000000001" y="4525674.47368421" type="priority" /><node id="n_0_18" x="-8215110.000000001" y="4525849.736842105" type="traffic_light" /><node id="n_0_19" x="-8215110.000000001" y="4526025.0" type="priority" /><node id="n_1_0" x="-8214713.571428572" y="4522695.0" type="priority" /><node id="n_1_1" x="-8214713.571428572" y="4522870.263157895" type="priority" /><node id="n_1_2" x="-8214713.571428572" y="4523045.52631579" type="priority" /><node id="n_1_3" x="-8214713.571428572" y="4523220.7894736845" type="priority" /><node id="n_1_4" x="-8214713.571428572" y="4523396.052631578" type="priority" /><node id="n_1_5" x="-8214713.571428572" y="4523571.315789473" type="priority" /><node id="n_1_6" x="-8214713.571428572" y="4523746.578947368" type="priority" /><node id="n_1_7" x="-8214713.571428572" y="4523921.842105263" type="priority" /><node id="n_1_8" x="-8214713.571428572" y="4524097.105263158" type="priority" /><node id="n_1_9" x="-8214713.571428572" y="4524272.368421053" type="priority" /><node id="n_1_10" x="-8214713.571428572" y="4524447.6315789465" type="priority" /><node id="n_1_11" x="-8214713.571428572" y="4524622.894736841" type="priority" /><node id="n_1_12" x="-8214713.571428572" y="4524798.157894736" type="priority" /><node id="n_1_13" x="-8214713.571428572" y="4524973.421052631" type="priority" /><node id="n_1_14" x="-8214713.571428572" y="4525148.684210526" type="priority" /><node id="n_1_15" x="-8214713.571428572" y="4525323.947368422" type="priority" /><node id="n_1_16" x="-8214713.571428572" y="4525499.2105263155" type="priority" /><node id="n_1_17" x="-8214713.571428572" y="4525674.47368421" type="priority" /><node id="n_1_18" x="-8214713.571428572" y="4525849.736842105" type="priority" /><node id="n_1_19" x="-8214713.571428572" y="4526025.0" type="priority" /><node id="n_2_0" x="-8214317.142857144" y="4522695.0" type="traffic_light" /><node id="n_2_1" x="-8214317.142857144" y="4522870.263157895" type="priority" /><node id="n_2_2" x="-8214317.142857144" y="4523045.52631579" type="traffic_light" /><node id="n_2_3" x="-8214317.142857144" y="4523220.7894736845" type="priority" /><node id="n_2_4" x="-8214317.142857144" y="4523396.052631578" type="traffic_light" /><node id="n_2_5" x="-8214317.142857144" y="4523571.315789473" type="priority" /><node id="n_2_6" x="-8214317.142857144" y="4523746.578947368" type="traffic_light" /><node id="n_2_7" x="-8214317.142857144" y="4523921.842105263" type="priority" /><node id="n_2_8" x="-8214317.142857144" y="4524097.105263158" type="traffic_light" /><node id="n_2_9" x="-8214317.142857144" y="4524272.368421053" type="priority" /><node id="n_2_10" x="-8214317.142857144" y="4524447.6315789465" type="traffic_light" /><node id="n_2_11" x="-8214317.142857144" y="4524622.894736841" type="priority" /><node id="n_2_12" x="-8214317.142857144" y="4524798.157894736" type="traffic_light" /><node id="n_2_13" x="-8214317.142857144" y="4524973.421052631" type="priority" /><node id="n_2_14" x="-8214317.142857144" y="4525148.684210526" type="traffic_light" /><node id="n_2_15" x="-8214317.142857144" y="4525323.947368422" type="priority" /><node id="n_2_16" x="-8214317.142857144" y="4525499.2105263155" type="traffic_light" /><node id="n_2_17" x="-8214317.142857144" y="4525674.47368421" type="priority" /><node id="n_2_18" x="-8214317.142857144" y="4525849.736842105" type="traffic_light" /><node id="n_2_19" x="-8214317.142857144" y="4526025.0" type="priority" /><node id="n_3_0" x="-8213920.714285715" y="4522695.0" type="priority" /><node id="n_3_1" x="-8213920.714285715" y="4522870.263157895" type="priority" /><node id="n_3_2" x="-8213920.714285715" y="4523045.52631579" type="priority" /><node id="n_3_3" x="-8213920.714285715" y="4523220.7894736845" type="priority" /><node id="n_3_4" x="-8213920.714285715" y="4523396.052631578" type="priority" /><node id="n_3_5" x="-8213920.714285715" y="4523571.315789473" type="priority" /><node id="n_3_6" x="-8213920.714285715" y="4523746.578947368" type="priority" /><node id="n_3_7" x="-8213920.714285715" y="4523921.842105263" type="priority" /><node id="n_3_8" x="-8213920.714285715" y="4524097.105263158" type="priority" /><node id="n_3_9" x="-8213920.714285715" y="4524272.368421053" type="priority" /><node id="n_3_10" x="-8213920.714285715" y="4524447.6315789465" type="priority" /><node id="n_3_11" x="-8213920.714285715" y="4524622.894736841" type="priority" /><node id="n_3_12" x="-8213920.714285715" y="4524798.157894736" type="priority" /><node id="n_3_13" x="-8213920.714285715" y="4524973.421052631" type="priority" /><node id="n_3_14" x="-8213920.714285715" y="4525148.684210526" type="priority" /><node id="n_3_15" x="-8213920.714285715" y="4525323.947368422" type="priority" /><node id="n_3_16" x="-8213920.714285715" y="4525499.2105263155" type="priority" /><node id="n_3_17" x="-8213920.714285715" y="4525674.47368421" type="priority" /><node id="n_3_18" x="-8213920.714285715" y="4525849.736842105" type="priority" /><node id="n_3_19" x="-8213920.714285715" y="4526025.0" type="priority" /><node id="n_4_0" x="-8213524.285714285" y="4522695.0" type="traffic_light" /><node id="n_4_1" x="-8213524.285714285" y="4522870.263157895" type="priority" /><node id="n_4_2" x="-8213524.285714285" y="4523045.52631579" type="traffic_light" /><node id="n_4_3" x="-8213524.285714285" y="4523220.7894736845" type="priority" /><node id="n_4_4" x="-8213524.285714285" y="4523396.052631578" type="traffic_light" /><node id="n_4_5" x="-8213524.285714285" y="4523571.315789473" type="priority" /><node id="n_4_6" x="-8213524.285714285" y="4523746.578947368" type="traffic_light" /><node id="n_4_7" x="-8213524.285714285" y="4523921.842105263" type="priority" /><node id="n_4_8" x="-8213524.285714285" y="4524097.105263158" type="traffic_light" /><node id="n_4_9" x="-8213524.285714285" y="4524272.368421053" type="priority" /><node id="n_4_10" x="-8213524.285714285" y="4524447.6315789465" type="traffic_light" /><node id="n_4_11" x="-8213524.285714285" y="4524622.894736841" type="priority" /><node id="n_4_12" x="-8213524.285714285" y="4524798.157894736" type="traffic_light" /><node id="n_4_13" x="-8213524.285714285" y="4524973.421052631" type="priority" /><node id="n_4_14" x="-8213524.285714285" y="4525148.684210526" type="traffic_light" /><node id="n_4_15" x="-8213524.285714285" y="4525323.947368422" type="priority" /><node id="n_4_16" x="-8213524.285714285" y="4525499.2105263155" type="traffic_light" /><node id="n_4_17" x="-8213524.285714285" y="4525674.47368421" type="priority" /><node id="n_4_18" x="-8213524.285714285" y="4525849.736842105" type="traffic_light" /><node id="n_4_19" x="-8213524.285714285" y="4526025.0" type="priority" /><node id="n_5_0" x="-8213127.857142856" y="4522695.0" type="priority" /><node id="n_5_1" x="-8213127.857142856" y="4522870.263157895" type="priority" /><node id="n_5_2" x="-8213127.857142856" y="4523045.52631579" type="priority" /><node id="n_5_3" x="-8213127.857142856" y="4523220.7894736845" type="priority" /><node id="n_5_4" x="-8213127.857142856" y="4523396.052631578" type="priority" /><node id="n_5_5" x="-8213127.857142856" y="4523571.315789473" type="priority" /><node id="n_5_6" x="-8213127.857142856" y="4523746.578947368" type="priority" /><node id="n_5_7" x="-8213127.857142856" y="4523921.842105263" type="priority" /><node id="n_5_8" x="-8213127.857142856" y="4524097.105263158" type="priority" /><node id="n_5_9" x="-8213127.857142856" y="4524272.368421053" type="priority" /><node id="n_5_10" x="-8213127.857142856" y="4524447.6315789465" type="priority" /><node id="n_5_11" x="-8213127.857142856" y="4524622.894736841" type="priority" /><node id="n_5_12" x="-8213127.857142856" y="4524798.157894736" type="priority" /><node id="n_5_13" x="-8213127.857142856" y="4524973.421052631" type="priority" /><node id="n_5_14" x="-8213127.857142856" y="4525148.684210526" type="priority" /><node id="n_5_15" x="-8213127.857142856" y="4525323.947368422" type="priority" /><node id="n_5_16" x="-8213127.857142856" y="4525499.2105263155" type="priority" /><node id="n_5_17" x="-8213127.857142856" y="4525674.47368421" type="priority" /><node id="n_5_18" x="-8213127.857142856" y="4525849.736842105" type="priority" /><node id="n_5_19" x="-8213127.857142856" y="4526025.0" type="priority" /><node id="n_6_0" x="-8212731.428571429" y="4522695.0" type="traffic_light" /><node id="n_6_1" x="-8212731.428571429" y="4522870.263157895" type="priority" /><node id="n_6_2" x="-8212731.428571429" y="4523045.52631579" type="traffic_light" /><node id="n_6_3" x="-8212731.428571429" y="4523220.7894736845" type="priority" /><node id="n_6_4" x="-8212731.428571429" y="4523396.052631578" type="traffic_light" /><node id="n_6_5" x="-8212731.428571429" y="4523571.315789473" type="priority" /><node id="n_6_6" x="-8212731.428571429" y="4523746.578947368" type="traffic_light" /><node id="n_6_7" x="-8212731.428571429" y="4523921.842105263" type="priority" /><node id="n_6_8" x="-8212731.428571429" y="4524097.105263158" type="traffic_light" /><node id="n_6_9" x="-8212731.428571429" y="4524272.368421053" type="priority" /><node id="n_6_10" x="-8212731.428571429" y="4524447.6315789465" type="traffic_light" /><node id="n_6_11" x="-8212731.428571429" y="4524622.894736841" type="priority" /><node id="n_6_12" x="-8212731.428571429" y="4524798.157894736" type="traffic_light" /><node id="n_6_13" x="-8212731.428571429" y="4524973.421052631" type="priority" /><node id="n_6_14" x="-8212731.428571429" y="4525148.684210526" type="traffic_light" /><node id="n_6_15" x="-8212731.428571429" y="4525323.947368422" type="priority" /><node id="n_6_16" x="-8212731.428571429" y="4525499.2105263155" type="traffic_light" /><node id="n_6_17" x="-8212731.428571429" y="4525674.47368421" type="priority" /><node id="n_6_18" x="-8212731.428571429" y="4525849.736842105" type="traffic_light" /><node id="n_6_19" x="-8212731.428571429" y="4526025.0" type="priority" /><node id="n_7_0" x="-8212335.0" y="4522695.0" type="priority" /><node id="n_7_1" x="-8212335.0" y="4522870.263157895" type="priority" /><node id="n_7_2" x="-8212335.0" y="4523045.52631579" type="priority" /><node id="n_7_3" x="-8212335.0" y="4523220.7894736845" type="priority" /><node id="n_7_4" x="-8212335.0" y="4523396.052631578" type="priority" /><node id="n_7_5" x="-8212335.0" y="4523571.315789473" type="priority" /><node id="n_7_6" x="-8212335.0" y="4523746.578947368" type="priority" /><node id="n_7_7" x="-8212335.0" y="4523921.842105263" type="priority" /><node id="n_7_8" x="-8212335.0" y="4524097.105263158" type="priority" /><node id="n_7_9" x="-8212335.0" y="4524272.368421053" type="priority" /><node id="n_7_10" x="-8212335.0" y="4524447.6315789465" type="priority" /><node id="n_7_11" x="-8212335.0" y="4524622.894736841" type="priority" /><node id="n_7_12" x="-8212335.0" y="4524798.157894736" type="priority" /><node id="n_7_13" x="-8212335.0" y="4524973.421052631" type="priority" /><node id="n_7_14" x="-8212335.0" y="4525148.684210526" type="priority" /><node id="n_7_15" x="-8212335.0" y="4525323.947368422" type="priority" /><node id="n_7_16" x="-8212335.0" y="4525499.2105263155" type="priority" /><node id="n_7_17" x="-8212335.0" y="4525674.47368421" type="priority" /><node id="n_7_18" x="-8212335.0" y="4525849.736842105" type="priority" /><node id="n_7_19" x="-8212335.0" y="4526025.0" type="priority" /><node id="n_8_0" x="-8211938.571428571" y="4522695.0" type="traffic_light" /><node id="n_8_1" x="-8211938.571428571" y="4522870.263157895" type="priority" /><node id="n_8_2" x="-8211938.571428571" y="4523045.52631579" type="traffic_light" /><node id="n_8_3" x="-8211938.571428571" y="4523220.7894736845" type="priority" /><node id="n_8_4" x="-8211938.571428571" y="4523396.052631578" type="traffic_light" /><node id="n_8_5" x="-8211938.571428571" y="4523571.315789473" type="priority" /><node id="n_8_6" x="-8211938.571428571" y="4523746.578947368" type="traffic_light" /><node id="n_8_7" x="-8211938.571428571" y="4523921.842105263" type="priority" /><node id="n_8_8" x="-8211938.571428571" y="4524097.105263158" type="traffic_light" /><node id="n_8_9" x="-8211938.571428571" y="4524272.368421053" type="priority" /><node id="n_8_10" x="-8211938.571428571" y="4524447.6315789465" type="traffic_light" /><node id="n_8_11" x="-8211938.571428571" y="4524622.894736841" type="priority" /><node id="n_8_12" x="-8211938.571428571" y="4524798.157894736" type="traffic_light" /><node id="n_8_13" x="-8211938.571428571" y="4524973.421052631" type="priority" /><node id="n_8_14" x="-8211938.571428571" y="4525148.684210526" type="traffic_light" /><node id="n_8_15" x="-8211938.571428571" y="4525323.947368422" type="priority" /><node id="n_8_16" x="-8211938.571428571" y="4525499.2105263155" type="traffic_light" /><node id="n_8_17" x="-8211938.571428571" y="4525674.47368421" type="priority" /><node id="n_8_18" x="-8211938.571428571" y="4525849.736842105" type="traffic_light" /><node id="n_8_19" x="-8211938.571428571" y="4526025.0" type="priority" /><node id="n_9_0" x="-8211542.142857144" y="4522695.0" type="priority" /><node id="n_9_1" x="-8211542.142857144" y="4522870.263157895" type="priority" /><node id="n_9_2" x="-8211542.142857144" y="4523045.52631579" type="priority" /><node id="n_9_3" x="-8211542.142857144" y="4523220.7894736845" type="priority" /><node id="n_9_4" x="-8211542.142857144" y="4523396.052631578" type="priority" /><node id="n_9_5" x="-8211542.142857144" y="4523571.315789473" type="priority" /><node id="n_9_6" x="-8211542.142857144" y="4523746.578947368" type="priority" /><node id="n_9_7" x="-8211542.142857144" y="4523921.842105263" type="priority" /><node id="n_9_8" x="-8211542.142857144" y="4524097.105263158" type="priority" /><node id="n_9_9" x="-8211542.142857144" y="4524272.368421053" type="priority" /><node id="n_9_10" x="-8211542.142857144" y="4524447.6315789465" type="priority" /><node id="n_9_11" x="-8211542.142857144" y="4524622.894736841" type="priority" /><node id="n_9_12" x="-8211542.142857144" y="4524798.157894736" type="priority" /><node id="n_9_13" x="-8211542.142857144" y="4524973.421052631" type="priority" /><node id="n_9_14" x="-8211542.142857144" y="4525148.684210526" type="priority" /><node id="n_9_15" x="-8211542.142857144" y="4525323.947368422" type="priority" /><node id="n_9_16" x="-8211542.142857144" y="4525499.2105263155" type="priority" /><node id="n_9_17" x="-8211542.142857144" y="4525674.47368421" type="priority" /><node id="n_9_18" x="-8211542.142857144" y="4525849.736842105" type="priority" /><node id="n_9_19" x="-8211542.142857144" y="4526025.0" type="priority" /><node id="n_10_0" x="-8211145.714285715" y="4522695.0" type="traffic_light" /><node id="n_10_1" x="-8211145.714285715" y="4522870.263157895" type="priority" /><node id="n_10_2" x="-8211145.714285715" y="4523045.52631579" type="traffic_light" /><node id="n_10_3" x="-8211145.714285715" y="4523220.7894736845" type="priority" /><node id="n_10_4" x="-8211145.714285715" y="4523396.052631578" type="traffic_light" /><node id="n_10_5" x="-8211145.714285715" y="4523571.315789473" type="priority" /><node id="n_10_6" x="-8211145.714285715" y="4523746.578947368" type="traffic_light" /><node id="n_10_7" x="-8211145.714285715" y="4523921.842105263" type="priority" /><node id="n_10_8" x="-8211145.714285715" y="4524097.105263158" type="traffic_light" /><node id="n_10_9" x="-8211145.714285715" y="4524272.368421053" type="priority" /><node id="n_10_10" x="-8211145.714285715" y="4524447.6315789465" type="traffic_light" /><node id="n_10_11" x="-8211145.714285715" y="4524622.894736841" type="priority" /><node id="n_10_12" x="-8211145.714285715" y="4524798.157894736" type="traffic_light" /><node id="n_10_13" x="-8211145.714285715" y="4524973.421052631" type="priority" /><node id="n_10_14" x="-8211145.714285715" y="4525148.684210526" type="traffic_light" /><node id="n_10_15" x="-8211145.714285715" y="4525323.947368422" type="priority" /><node id="n_10_16" x="-8211145.714285715" y="4525499.2105263155" type="traffic_light" /><node id="n_10_17" x="-8211145.714285715" y="4525674.47368421" type="priority" /><node id="n_10_18" x="-8211145.714285715" y="4525849.736842105" type="traffic_light" /><node id="n_10_19" x="-8211145.714285715" y="4526025.0" type="priority" /><node id="n_11_0" x="-8210749.285714285" y="4522695.0" type="priority" /><node id="n_11_1" x="-8210749.285714285" y="4522870.263157895" type="priority" /><node id="n_11_2" x="-8210749.285714285" y="4523045.52631579" type="priority" /><node id="n_11_3" x="-8210749.285714285" y="4523220.7894736845" type="priority" /><node id="n_11_4" x="-8210749.285714285" y="4523396.052631578" type="priority" /><node id="n_11_5" x="-8210749.285714285" y="4523571.315789473" type="priority" /><node id="n_11_6" x="-8210749.285714285" y="4523746.578947368" type="priority" /><node id="n_11_7" x="-8210749.285714285" y="4523921.842105263" type="priority" /><node id="n_11_8" x="-8210749.285714285" y="4524097.105263158" type="priority" /><node id="n_11_9" x="-8210749.285714285" y="4524272.368421053" type="priority" /><node id="n_11_10" x="-8210749.285714285" y="4524447.6315789465" type="priority" /><node id="n_11_11" x="-8210749.285714285" y="4524622.894736841" type="priority" /><node id="n_11_12" x="-8210749.285714285" y="4524798.157894736" type="priority" /><node id="n_11_13" x="-8210749.285714285" y="4524973.421052631" type="priority" /><node id="n_11_14" x="-8210749.285714285" y="4525148.684210526" type="priority" /><node id="n_11_15" x="-8210749.285714285" y="4525323.947368422" type="priority" /><node id="n_11_16" x="-8210749.285714285" y="4525499.2105263155" type="priority" /><node id="n_11_17" x="-8210749.285714285" y="4525674.47368421" type="priority" /><node id="n_11_18" x="-8210749.285714285" y="4525849.736842105" type="priority" /><node id="n_11_19" x="-8210749.285714285" y="4526025.0" type="priority" /><node id="n_12_0" x="-8210352.857142856" y="4522695.0" type="traffic_light" /><node id="n_12_1" x="-8210352.857142856" y="4522870.263157895" type="priority" /><node id="n_12_2" x="-8210352.857142856" y="4523045.52631579" type="traffic_light" /><node id="n_12_3" x="-8210352.857142856" y="4523220.7894736845" type="priority" /><node id="n_12_4" x="-8210352.857142856" y="4523396.052631578" type="traffic_light" /><node id="n_12_5" x="-8210352.857142856" y="4523571.315789473" type="priority" /><node id="n_12_6" x="-8210352.857142856" y="4523746.578947368" type="traffic_light" /><node id="n_12_7" x="-8210352.857142856" y="4523921.842105263" type="priority" /><node id="n_12_8" x="-8210352.857142856" y="4524097.105263158" type="traffic_light" /><node id="n_12_9" x="-8210352.857142856" y="4524272.368421053" type="priority" /><node id="n_12_10" x="-8210352.857142856" y="4524447.6315789465" type="traffic_light" /><node id="n_12_11" x="-8210352.857142856" y="4524622.894736841" type="priority" /><node id="n_12_12" x="-8210352.857142856" y="4524798.157894736" type="traffic_light" /><node id="n_12_13" x="-8210352.857142856" y="4524973.421052631" type="priority" /><node id="n_12_14" x="-8210352.857142856" y="4525148.684210526" type="traffic_light" /><node id="n_12_15" x="-8210352.857142856" y="4525323.947368422" type="priority" /><node id="n_12_16" x="-8210352.857142856" y="4525499.2105263155" type="traffic_light" /><node id="n_12_17" x="-8210352.857142856" y="4525674.47368421" type="priority" /><node id="n_12_18" x="-8210352.857142856" y="4525849.736842105" type="traffic_light" /><node id="n_12_19" x="-8210352.857142856" y="4526025.0" type="priority" /><node id="n_13_0" x="-8209956.428571428" y="4522695.0" type="priority" /><node id="n_13_1" x="-8209956.428571428" y="4522870.263157895" type="priority" /><node id="n_13_2" x="-8209956.428571428" y="4523045.52631579" type="priority" /><node id="n_13_3" x="-8209956.428571428" y="4523220.7894736845" type="priority" /><node id="n_13_4" x="-8209956.428571428" y="4523396.052631578" type="priority" /><node id="n_13_5" x="-8209956.428571428" y="4523571.315789473" type="priority" /><node id="n_13_6" x="-8209956.428571428" y="4523746.578947368" type="priority" /><node id="n_13_7" x="-8209956.428571428" y="4523921.842105263" type="priority" /><node id="n_13_8" x="-8209956.428571428" y="4524097.105263158" type="priority" /><node id="n_13_9" x="-8209956.428571428" y="4524272.368421053" type="priority" /><node id="n_13_10" x="-8209956.428571428" y="4524447.6315789465" type="priority" /><node id="n_13_11" x="-8209956.428571428" y="4524622.894736841" type="priority" /><node id="n_13_12" x="-8209956.428571428" y="4524798.157894736" type="priority" /><node id="n_13_13" x="-8209956.428571428" y="4524973.421052631" type="priority" /><node id="n_13_14" x="-8209956.428571428" y="4525148.684210526" type="priority" /><node id="n_13_15" x="-8209956.428571428" y="4525323.947368422" type="priority" /><node id="n_13_16" x="-8209956.428571428" y="4525499.2105263155" type="priority" /><node id="n_13_17" x="-8209956.428571428" y="4525674.47368421" type="priority" /><node id="n_13_18" x="-8209956.428571428" y="4525849.736842105" type="priority" /><node id="n_13_19" x="-8209956.428571428" y="4526025.0" type="priority" /><node id="n_14_0" x="-8209559.999999999" y="4522695.0" type="traffic_light" /><node id="n_14_1" x="-8209559.999999999" y="4522870.263157895" type="priority" /><node id="n_14_2" x="-8209559.999999999" y="4523045.52631579" type="traffic_light" /><node id="n_14_3" x="-8209559.999999999" y="4523220.7894736845" type="priority" /><node id="n_14_4" x="-8209559.999999999" y="4523396.052631578" type="traffic_light" /><node id="n_14_5" x="-8209559.999999999" y="4523571.315789473" type="priority" /><node id="n_14_6" x="-8209559.999999999" y="4523746.578947368" type="traffic_light" /><node id="n_14_7" x="-8209559.999999999" y="4523921.842105263" type="priority" /><node id="n_14_8" x="-8209559.999999999" y="4524097.105263158" type="traffic_light" /><node id="n_14_9" x="-8209559.999999999" y="4524272.368421053" type="priority" /><node id="n_14_10" x="-8209559.999999999" y="4524447.6315789465" type="traffic_light" /><node id="n_14_11" x="-8209559.999999999" y="4524622.894736841" type="priority" /><node id="n_14_12" x="-8209559.999999999" y="4524798.157894736" type="traffic_light" /><node id="n_14_13" x="-8209559.999999999" y="4524973.421052631" type="priority" /><node id="n_14_14" x="-8209559.999999999" y="4525148.684210526" type="traffic_light" /><node id="n_14_15" x="-8209559.999999999" y="4525323.947368422" type="priority" /><node id="n_14_16" x="-8209559.999999999" y="4525499.2105263155" type="traffic_light" /><node id="n_14_17" x="-8209559.999999999" y="4525674.47368421" type="priority" /><node id="n_14_18" x="-8209559.999999999" y="4525849.736842105" type="traffic_light" /><node id="n_14_19" x="-8209559.999999999" y="4526025.0" type="priority" /></nodes><edges><edge id="e_h_0_0" from="n_0_0" to="n_1_0" numLanes="3" speed="13.89" priority="1" /><edge id="e_h_1_0" from="n_1_0" to="n_2_0" numLanes="3" speed="13.89" priority="1" /><edge id="e_h_2_0" from="n_2_0" to="n_3_0" numLanes="3" speed="13.89" priority="1" /><edge id="e_h_3_0" from="n_3_0" to="n_4_0" numLanes="3" speed="13.89" priority="1" /><edge id="e_h_4_0" from="n_4_0" to="n_5_0" numLanes="3" speed="13.89" priority="1" /><edge id="e_h_5_0" from="n_5_0" to="n_6_0" numLanes="3" speed="13.89" priority="1" /><edge id="e_h_6_0" from="n_6_0" to="n_7_0" numLanes="3" speed="13.89" priority="1" /><edge id="e_h_7_0" from="n_7_0" to="n_8_0" numLanes="3" speed="13.89" priority="1" /><edge id="e_h_8_0" from="n_8_0" to="n_9_0" numLanes="3" speed="13.89" priority="1" /><edge id="e_h_9_0" from="n_9_0" to="n_10_0" numLanes="3" speed="13.89" priority="1" /><edge id="e_h_10_0" from="n_10_0" to="n_11_0" numLanes="3" speed="13.89" priority="1" /><edge id="e_h_11_0" from="n_11_0" to="n_12_0" numLanes="3" speed="13.89" priority="1" /><edge id="e_h_12_0" from="n_12_0" to="n_13_0" numLanes="3" speed="13.89" priority="1" /><edge id="e_h_13_0" from="n_13_0" to="n_14_0" numLanes="3" speed="13.89" priority="1" /><edge id="e_h_0_1" from="n_0_1" to="n_1_1" numLanes="3" speed="13.89" priority="1" /><edge id="e_h_1_1" from="n_1_1" to="n_2_1" numLanes="3" speed="13.89" priority="1" /><edge id="e_h_2_1" from="n_2_1" to="n_3_1" numLanes="3" speed="13.89" priority="1" /><edge id="e_h_3_1" from="n_3_1" to="n_4_1" numLanes="3" speed="13.89" priority="1" /><edge id="e_h_4_1" from="n_4_1" to="n_5_1" numLanes="3" speed="13.89" priority="1" /><edge id="e_h_5_1" from="n_5_1" to="n_6_1" numLanes="3" speed="13.89" priority="1" /><edge id="e_h_6_1" from="n_6_1" to="n_7_1" numLanes="3" speed="13.89" priority="1" /><edge id="e_h_7_1" from="n_7_1" to="n_8_1" numLanes="3" speed="13.89" priority="1" /><edge id="e_h_8_1" from="n_8_1" to="n_9_1" numLanes="3" speed="13.89" priority="1" /><edge id="e_h_9_1" from="n_9_1" to="n_10_1" numLanes="3" speed="13.89" priority="1" /><edge id="e_h_10_1" from="n_10_1" to="n_11_1" numLanes="3" speed="13.89" priority="1" /><edge id="e_h_11_1" from="n_11_1" to="n_12_1" numLanes="3" speed="13.89" priority="1" /><edge id="e_h_12_1" from="n_12_1" to="n_13_1" numLanes="3" speed="13.89" priority="1" /><edge id="e_h_13_1" from="n_13_1" to="n_14_1" numLanes="3" speed="13.89" priority="1" /><edge id="e_h_0_2" from="n_0_2" to="n_1_2" numLanes="3" speed="13.89" priority="1" /><edge id="e_h_1_2" from="n_1_2" to="n_2_2" numLanes="3" speed="13.89" priority="1" /><edge id="e_h_2_2" from="n_2_2" to="n_3_2" numLanes="3" speed="13.89" priority="1" /><edge id="e_h_3_2" from="n_3_2" to="n_4_2" numLanes="3" speed="13.89" priority="1" /><edge id="e_h_4_2" from="n_4_2" to="n_5_2" numLanes="3" speed="13.89" priority="1" /><edge id="e_h_5_2" from="n_5_2" to="n_6_2" numLanes="3" speed="13.89" priority="1" /><edge id="e_h_6_2" from="n_6_2" to="n_7_2" numLanes="3" speed="13.89" priority="1" /><edge id="e_h_7_2" from="n_7_2" to="n_8_2" numLanes="3" speed="13.89" priority="1" /><edge id="e_h_8_2" from="n_8_2" to="n_9_2" numLanes="3" speed="13.89" priority="1" /><edge id="e_h_9_2" from="n_9_2" to="n_10_2" numLanes="3" speed="13.89" priority="1" /><edge id="e_h_10_2" from="n_10_2" to="n_11_2" numLanes="3" speed="13.89" priority="1" /><edge id="e_h_11_2" from="n_11_2" to="n_12_2" numLanes="3" speed="13.89" priority="1" /><edge id="e_h_12_2" from="n_12_2" to="n_13_2" numLanes="3" speed="13.89" priority="1" /><edge id="e_h_13_2" from="n_13_2" to="n_14_2" numLanes="3" speed="13.89" priority="1" /><edge id="e_h_0_3" from="n_0_3" to="n_1_3" numLanes="3" speed="13.89" priority="1" /><edge id="e_h_1_3" from="n_1_3" to="n_2_3" numLanes="3" speed="13.89" priority="1" /><edge id="e_h_2_3" from="n_2_3" to="n_3_3" numLanes="3" speed="13.89" priority="1" /><edge id="e_h_3_3" from="n_3_3" to="n_4_3" numLanes="3" speed="13.89" priority="1" /><edge id="e_h_4_3" from="n_4_3" to="n_5_3" numLanes="3" speed="13.89" priority="1" /><edge id="e_h_5_3" from="n_5_3" to="n_6_3" numLanes="3" speed="13.89" priority="1" /><edge id="e_h_6_3" from="n_6_3" to="n_7_3" numLanes="3" speed="13.89" priority="1" /><edge id="e_h_7_3" from="n_7_3" to="n_8_3" numLanes="3" speed="13.89" priority="1" /><edge id="e_h_8_3" from="n_8_3" to="n_9_3" numLanes="3" speed="13.89" priority="1" /><edge id="e_h_9_3" from="n_9_3" to="n_10_3" numLanes="3" speed="13.89" priority="1" /><edge id="e_h_10_3" from="n_10_3" to="n_11_3" numLanes="3" speed="13.89" priority="1" /><edge id="e_h_11_3" from="n_11_3" to="n_12_3" numLanes="3" speed="13.89" priority="1" /><edge id="e_h_12_3" from="n_12_3" to="n_13_3" numLanes="3" speed="13.89" priority="1" /><edge id="e_h_13_3" from="n_13_3" to="n_14_3" numLanes="3" speed="13.89" priority="1" /><edge id="e_h_0_4" from="n_0_4" to="n_1_4" numLanes="3" speed="13.89" priority="1" /><edge id="e_h_1_4" from="n_1_4" to="n_2_4" numLanes="3" speed="13.89" priority="1" /><edge id="e_h_2_4" from="n_2_4" to="n_3_4" numLanes="3" speed="13.89" priority="1" /><edge id="e_h_3_4" from="n_3_4" to="n_4_4" numLanes="3" speed="13.89" priority="1" /><edge id="e_h_4_4" from="n_4_4" to="n_5_4" numLanes="3" speed="13.89" priority="1" /><edge id="e_h_5_4" from="n_5_4" to="n_6_4" numLanes="3" speed="13.89" priority="1" /><edge id="e_h_6_4" from="n_6_4" to="n_7_4" numLanes="3" speed="13.89" priority="1" /><edge id="e_h_7_4" from="n_7_4" to="n_8_4" numLanes="3" speed="13.89" priority="1" /><edge id="e_h_8_4" from="n_8_4" to="n_9_4" numLanes="3" speed="13.89" priority="1" /><edge id="e_h_9_4" from="n_9_4" to="n_10_4" numLanes="3" speed="13.89" priority="1" /><e