<?xml version="1.0" encoding="UTF-8"?>

<!-- generated on 2025-09-02 07:54:41 by Eclipse SUMO netconvert Version 1.24.0
<netconvertConfiguration xmlns:xsi="http://www.w3.org/2001/XMLSchema-instance" xsi:noNamespaceSchemaLocation="http://sumo.dlr.de/xsd/netconvertConfiguration.xsd">

    <input>
        <node-files value="data/manhattan.nod.xml"/>
        <edge-files value="data/manhattan.edg.xml"/>
    </input>

    <output>
        <output-file value="data/manhattan.net.xml"/>
    </output>

    <processing>
        <geometry.remove value="true"/>
        <offset.disable-normalization value="true"/>
    </processing>

    <junctions>
        <no-turnarounds value="true"/>
        <junctions.join value="true"/>
    </junctions>

    <report>
        <verbose value="true"/>
        <no-warnings value="true"/>
    </report>

</netconvertConfiguration>
-->

<net version="1.20" junctionCornerDetail="5" limitTurnSpeed="5.50" xmlns:xsi="http://www.w3.org/2001/XMLSchema-instance" xsi:noNamespaceSchemaLocation="http://sumo.dlr.de/xsd/net_file.xsd">

    <location netOffset="0.00,0.00" convBoundary="-1000.00,74500.00,4000.00,77500.00" origBoundary="-1000.00,74500.00,4000.00,77500.00" projParameter="!"/>

    <edge id=":n1_0" function="internal">
        <lane id=":n1_0_0" index="0" speed="6.51" length="9.03" shape="-995.20,75239.60 -994.85,75242.05 -993.80,75243.80 -992.05,75244.85 -989.60,75245.20"/>
        <lane id=":n1_0_1" index="1" speed="7.33" length="11.73" shape="-995.20,75239.60 -994.85,75243.45 -993.80,75246.20 -992.05,75247.85 -989.60,75248.40"/>
    </edge>
    <edge id=":n1_2" function="internal">
        <lane id=":n1_2_0" index="0" speed="13.89" length="14.40" shape="-995.20,75239.60 -995.20,75254.00"/>
        <lane id=":n1_2_1" index="1" speed="13.89" length="14.40" shape="-998.40,75239.60 -998.40,75254.00"/>
    </edge>
    <edge id=":n10_0" function="internal">
        <lane id=":n10_0_0" index="0" speed="11.11" length="14.40" shape="1496.00,74495.20 1510.40,74495.20"/>
        <lane id=":n10_0_1" index="1" speed="11.11" length="14.40" shape="1496.00,74498.40 1510.40,74498.40"/>
    </edge>
    <edge id=":n10_2" function="internal">
        <lane id=":n10_2_0" index="0" speed="7.33" length="11.73" shape="1496.00,74498.40 1499.85,74498.75 1502.60,74499.80 1504.25,74501.55 1504.80,74504.00"/>
        <lane id=":n10_2_1" index="1" speed="6.51" length="9.03" shape="1496.00,74498.40 1498.45,74498.75 1500.20,74499.80 1501.25,74501.55 1501.60,74504.00"/>
    </edge>
    <edge id=":n11_0" function="internal">
        <lane id=":n11_0_0" index="0" speed="6.51" length="9.03" shape="1504.80,75239.60 1505.15,75242.05 1506.20,75243.80 1507.95,75244.85 1510.40,75245.20"/>
    </edge>
    <edge id=":n11_1" function="internal">
        <lane id=":n11_1_0" index="0" speed="13.89" length="14.40" shape="1504.80,75239.60 1504.80,75254.00"/>
        <lane id=":n11_1_1" index="1" speed="13.89" length="14.40" shape="1501.60,75239.60 1501.60,75254.00"/>
    </edge>
    <edge id=":n11_3" function="internal">
        <lane id=":n11_3_0" index="0" speed="11.11" length="14.40" shape="1496.00,75245.20 1510.40,75245.20"/>
        <lane id=":n11_3_1" index="1" speed="11.11" length="14.40" shape="1496.00,75248.40 1510.40,75248.40"/>
    </edge>
    <edge id=":n11_5" function="internal">
        <lane id=":n11_5_0" index="0" speed="6.51" length="9.03" shape="1496.00,75248.40 1498.45,75248.75 1500.20,75249.80 1501.25,75251.55 1501.60,75254.00"/>
    </edge>
    <edge id=":n12_0" function="internal">
        <lane id=":n12_0_0" index="0" speed="6.51" length="9.03" shape="1504.80,75989.60 1505.15,75992.05 1506.20,75993.80 1507.95,75994.85 1510.40,75995.20"/>
    </edge>
    <edge id=":n12_1" function="internal">
        <lane id=":n12_1_0" index="0" speed="13.89" length="14.40" shape="1504.80,75989.60 1504.80,76004.00"/>
        <lane id=":n12_1_1" index="1" speed="13.89" length="14.40" shape="1501.60,75989.60 1501.60,76004.00"/>
    </edge>
    <edge id=":n12_3" function="internal">
        <lane id=":n12_3_0" index="0" speed="11.11" length="14.40" shape="1496.00,75995.20 1510.40,75995.20"/>
        <lane id=":n12_3_1" index="1" speed="11.11" length="14.40" shape="1496.00,75998.40 1510.40,75998.40"/>
    </edge>
    <edge id=":n12_5" function="internal">
        <lane id=":n12_5_0" index="0" speed="6.51" length="9.03" shape="1496.00,75998.40 1498.45,75998.75 1500.20,75999.80 1501.25,76001.55 1501.60,76004.00"/>
    </edge>
    <edge id=":n13_0" function="internal">
        <lane id=":n13_0_0" index="0" speed="6.51" length="9.03" shape="1504.80,76739.60 1505.15,76742.05 1506.20,76743.80 1507.95,76744.85 1510.40,76745.20"/>
    </edge>
    <edge id=":n13_1" function="internal">
        <lane id=":n13_1_0" index="0" speed="13.89" length="14.40" shape="1504.80,76739.60 1504.80,76754.00"/>
        <lane id=":n13_1_1" index="1" speed="13.89" length="14.40" shape="1501.60,76739.60 1501.60,76754.00"/>
    </edge>
    <edge id=":n13_3" function="internal">
        <lane id=":n13_3_0" index="0" speed="11.11" length="14.40" shape="1496.00,76745.20 1510.40,76745.20"/>
        <lane id=":n13_3_1" index="1" speed="11.11" length="14.40" shape="1496.00,76748.40 1510.40,76748.40"/>
    </edge>
    <edge id=":n13_5" function="internal">
        <lane id=":n13_5_0" index="0" speed="6.51" length="9.03" shape="1496.00,76748.40 1498.45,76748.75 1500.20,76749.80 1501.25,76751.55 1501.60,76754.00"/>
    </edge>
    <edge id=":n14_0" function="internal">
        <lane id=":n14_0_0" index="0" speed="6.51" length="9.03" shape="1504.80,77489.60 1505.15,77492.05 1506.20,77493.80 1507.95,77494.85 1510.40,77495.20"/>
        <lane id=":n14_0_1" index="1" speed="8.00" length="14.19" shape="1501.60,77489.60 1502.15,77493.45 1503.80,77496.20 1506.55,77497.85 1510.40,77498.40"/>
    </edge>
    <edge id=":n14_2" function="internal">
        <lane id=":n14_2_0" index="0" speed="11.11" length="14.40" shape="1496.00,77495.20 1510.40,77495.20"/>
        <lane id=":n14_2_1" index="1" speed="11.11" length="14.40" shape="1496.00,77498.40 1510.40,77498.40"/>
    </edge>
    <edge id=":n15_0" function="internal">
        <lane id=":n15_0_0" index="0" speed="11.11" length="14.40" shape="2746.00,74495.20 2760.40,74495.20"/>
        <lane id=":n15_0_1" index="1" speed="11.11" length="14.40" shape="2746.00,74498.40 2760.40,74498.40"/>
    </edge>
    <edge id=":n15_2" function="internal">
        <lane id=":n15_2_0" index="0" speed="7.33" length="11.73" shape="2746.00,74498.40 2749.85,74498.75 2752.60,74499.80 2754.25,74501.55 2754.80,74504.00"/>
        <lane id=":n15_2_1" index="1" speed="6.51" length="9.03" shape="2746.00,74498.40 2748.45,74498.75 2750.20,74499.80 2751.25,74501.55 2751.60,74504.00"/>
    </edge>
    <edge id=":n16_0" function="internal">
        <lane id=":n16_0_0" index="0" speed="6.51" length="9.03" shape="2754.80,75239.60 2755.15,75242.05 2756.20,75243.80 2757.95,75244.85 2760.40,75245.20"/>
    </edge>
    <edge id=":n16_1" function="internal">
        <lane id=":n16_1_0" index="0" speed="13.89" length="14.40" shape="2754.80,75239.60 2754.80,75254.00"/>
        <lane id=":n16_1_1" index="1" speed="13.89" length="14.40" shape="2751.60,75239.60 2751.60,75254.00"/>
    </edge>
    <edge id=":n16_3" function="internal">
        <lane id=":n16_3_0" index="0" speed="11.11" length="14.40" shape="2746.00,75245.20 2760.40,75245.20"/>
        <lane id=":n16_3_1" index="1" speed="11.11" length="14.40" shape="2746.00,75248.40 2760.40,75248.40"/>
    </edge>
    <edge id=":n16_5" function="internal">
        <lane id=":n16_5_0" index="0" speed="6.51" length="9.03" shape="2746.00,75248.40 2748.45,75248.75 2750.20,75249.80 2751.25,75251.55 2751.60,75254.00"/>
    </edge>
    <edge id=":n17_0" function="internal">
        <lane id=":n17_0_0" index="0" speed="6.51" length="9.03" shape="2754.80,75989.60 2755.15,75992.05 2756.20,75993.80 2757.95,75994.85 2760.40,75995.20"/>
    </edge>
    <edge id=":n17_1" function="internal">
        <lane id=":n17_1_0" index="0" speed="13.89" length="14.40" shape="2754.80,75989.60 2754.80,76004.00"/>
        <lane id=":n17_1_1" index="1" speed="13.89" length="14.40" shape="2751.60,75989.60 2751.60,76004.00"/>
    </edge>
    <edge id=":n17_3" function="internal">
        <lane id=":n17_3_0" index="0" speed="11.11" length="14.40" shape="2746.00,75995.20 2760.40,75995.20"/>
        <lane id=":n17_3_1" index="1" speed="11.11" length="14.40" shape="2746.00,75998.40 2760.40,75998.40"/>
    </edge>
    <edge id=":n17_5" function="internal">
        <lane id=":n17_5_0" index="0" speed="6.51" length="9.03" shape="2746.00,75998.40 2748.45,75998.75 2750.20,75999.80 2751.25,76001.55 2751.60,76004.00"/>
    </edge>
    <edge id=":n18_0" function="internal">
        <lane id=":n18_0_0" index="0" speed="6.51" length="9.03" shape="2754.80,76739.60 2755.15,76742.05 2756.20,76743.80 2757.95,76744.85 2760.40,76745.20"/>
    </edge>
    <edge id=":n18_1" function="internal">
        <lane id=":n18_1_0" index="0" speed="13.89" length="14.40" shape="2754.80,76739.60 2754.80,76754.00"/>
        <lane id=":n18_1_1" index="1" speed="13.89" length="14.40" shape="2751.60,76739.60 2751.60,76754.00"/>
    </edge>
    <edge id=":n18_3" function="internal">
        <lane id=":n18_3_0" index="0" speed="11.11" length="14.40" shape="2746.00,76745.20 2760.40,76745.20"/>
        <lane id=":n18_3_1" index="1" speed="11.11" length="14.40" shape="2746.00,76748.40 2760.40,76748.40"/>
    </edge>
    <edge id=":n18_5" function="internal">
        <lane id=":n18_5_0" index="0" speed="6.51" length="9.03" shape="2746.00,76748.40 2748.45,76748.75 2750.20,76749.80 2751.25,76751.55 2751.60,76754.00"/>
    </edge>
    <edge id=":n19_0" function="internal">
        <lane id=":n19_0_0" index="0" speed="6.51" length="9.03" shape="2754.80,77489.60 2755.15,77492.05 2756.20,77493.80 2757.95,77494.85 2760.40,77495.20"/>
        <lane id=":n19_0_1" index="1" speed="8.00" length="14.19" shape="2751.60,77489.60 2752.15,77493.45 2753.80,77496.20 2756.55,77497.85 2760.40,77498.40"/>
    </edge>
    <edge id=":n19_2" function="internal">
        <lane id=":n19_2_0" index="0" speed="11.11" length="14.40" shape="2746.00,77495.20 2760.40,77495.20"/>
        <lane id=":n19_2_1" index="1" speed="11.11" length="14.40" shape="2746.00,77498.40 2760.40,77498.40"/>
    </edge>
    <edge id=":n2_0" function="internal">
        <lane id=":n2_0_0" index="0" speed="6.51" length="9.03" shape="-995.20,75989.60 -994.85,75992.05 -993.80,75993.80 -992.05,75994.85 -989.60,75995.20"/>
        <lane id=":n2_0_1" index="1" speed="7.33" length="11.73" shape="-995.20,75989.60 -994.85,75993.45 -993.80,75996.20 -992.05,75997.85 -989.60,75998.40"/>
    </edge>
    <edge id=":n2_2" function="internal">
        <lane id=":n2_2_0" index="0" speed="13.89" length="14.40" shape="-995.20,75989.60 -995.20,76004.00"/>
        <lane id=":n2_2_1" index="1" speed="13.89" length="14.40" shape="-998.40,75989.60 -998.40,76004.00"/>
    </edge>
    <edge id=":n20_0" function="internal">
        <lane id=":n20_0_0" index="0" speed="6.08" length="7.74" shape="4000.00,74495.20 4002.10,74495.50 4003.60,74496.40 4004.50,74497.90 4004.80,74500.00"/>
        <lane id=":n20_0_1" index="1" speed="3.90" length="2.58" shape="4000.00,74498.40 4000.70,74498.50 4001.20,74498.80 4001.50,74499.30 4001.60,74500.00"/>
    </edge>
    <edge id=":n21_0" function="internal">
        <lane id=":n21_0_0" index="0" speed="13.89" length="14.40" shape="4004.80,75239.60 4004.80,75254.00"/>
        <lane id=":n21_0_1" index="1" speed="13.89" length="14.40" shape="4001.60,75239.60 4001.60,75254.00"/>
    </edge>
    <edge id=":n21_2" function="internal">
        <lane id=":n21_2_0" index="0" speed="8.00" length="14.19" shape="3996.00,75245.20 3999.85,75245.75 4002.60,75247.40 4004.25,75250.15 4004.80,75254.00"/>
        <lane id=":n21_2_1" index="1" speed="6.51" length="9.03" shape="3996.00,75248.40 3998.45,75248.75 4000.20,75249.80 4001.25,75251.55 4001.60,75254.00"/>
    </edge>
    <edge id=":n22_0" function="internal">
        <lane id=":n22_0_0" index="0" speed="13.89" length="14.40" shape="4004.80,75989.60 4004.80,76004.00"/>
        <lane id=":n22_0_1" index="1" speed="13.89" length="14.40" shape="4001.60,75989.60 4001.60,76004.00"/>
    </edge>
    <edge id=":n22_2" function="internal">
        <lane id=":n22_2_0" index="0" speed="8.00" length="14.19" shape="3996.00,75995.20 3999.85,75995.75 4002.60,75997.40 4004.25,76000.15 4004.80,76004.00"/>
        <lane id=":n22_2_1" index="1" speed="6.51" length="9.03" shape="3996.00,75998.40 3998.45,75998.75 4000.20,75999.80 4001.25,76001.55 4001.60,76004.00"/>
    </edge>
    <edge id=":n23_0" function="internal">
        <lane id=":n23_0_0" index="0" speed="13.89" length="14.40" shape="4004.80,76739.60 4004.80,76754.00"/>
        <lane id=":n23_0_1" index="1" speed="13.89" length="14.40" shape="4001.60,76739.60 4001.60,76754.00"/>
    </edge>
    <edge id=":n23_2" function="internal">
        <lane id=":n23_2_0" index="0" speed="8.00" length="14.19" shape="3996.00,76745.20 3999.85,76745.75 4002.60,76747.40 4004.25,76750.15 4004.80,76754.00"/>
        <lane id=":n23_2_1" index="1" speed="6.51" length="9.03" shape="3996.00,76748.40 3998.45,76748.75 4000.20,76749.80 4001.25,76751.55 4001.60,76754.00"/>
    </edge>
    <edge id=":n3_0" function="internal">
        <lane id=":n3_0_0" index="0" speed="6.51" length="9.03" shape="-995.20,76739.60 -994.85,76742.05 -993.80,76743.80 -992.05,76744.85 -989.60,76745.20"/>
        <lane id=":n3_0_1" index="1" speed="7.33" length="11.73" shape="-995.20,76739.60 -994.85,76743.45 -993.80,76746.20 -992.05,76747.85 -989.60,76748.40"/>
    </edge>
    <edge id=":n3_2" function="internal">
        <lane id=":n3_2_0" index="0" speed="13.89" length="14.40" shape="-995.20,76739.60 -995.20,76754.00"/>
        <lane id=":n3_2_1" index="1" speed="13.89" length="14.40" shape="-998.40,76739.60 -998.40,76754.00"/>
    </edge>
    <edge id=":n4_0" function="internal">
        <lane id=":n4_0_0" index="0" speed="3.90" length="2.58" shape="-995.20,77493.60 -995.10,77494.30 -994.80,77494.80 -994.30,77495.10 -993.60,77495.20"/>
        <lane id=":n4_0_1" index="1" speed="6.08" length="7.74" shape="-998.40,77493.60 -998.10,77495.70 -997.20,77497.20 -995.70,77498.10 -993.60,77498.40"/>
    </edge>
    <edge id=":n5_0" function="internal">
        <lane id=":n5_0_0" index="0" speed="11.11" length="14.40" shape="246.00,74495.20 260.40,74495.20"/>
        <lane id=":n5_0_1" index="1" speed="11.11" length="14.40" shape="246.00,74498.40 260.40,74498.40"/>
    </edge>
    <edge id=":n5_2" function="internal">
        <lane id=":n5_2_0" index="0" speed="7.33" length="11.73" shape="246.00,74498.40 249.85,74498.75 252.60,74499.80 254.25,74501.55 254.80,74504.00"/>
        <lane id=":n5_2_1" index="1" speed="6.51" length="9.03" shape="246.00,74498.40 248.45,74498.75 250.20,74499.80 251.25,74501.55 251.60,74504.00"/>
    </edge>
    <edge id=":n6_0" function="internal">
        <lane id=":n6_0_0" index="0" speed="6.51" length="9.03" shape="254.80,75239.60 255.15,75242.05 256.20,75243.80 257.95,75244.85 260.40,75245.20"/>
    </edge>
    <edge id=":n6_1" function="internal">
        <lane id=":n6_1_0" index="0" speed="13.89" length="14.40" shape="254.80,75239.60 254.80,75254.00"/>
        <lane id=":n6_1_1" index="1" speed="13.89" length="14.40" shape="251.60,75239.60 251.60,75254.00"/>
    </edge>
    <edge id=":n6_3" function="internal">
        <lane id=":n6_3_0" index="0" speed="11.11" length="14.40" shape="246.00,75245.20 260.40,75245.20"/>
        <lane id=":n6_3_1" index="1" speed="11.11" length="14.40" shape="246.00,75248.40 260.40,75248.40"/>
    </edge>
    <edge id=":n6_5" function="internal">
        <lane id=":n6_5_0" index="0" speed="6.51" length="9.03" shape="246.00,75248.40 248.45,75248.75 250.20,75249.80 251.25,75251.55 251.60,75254.00"/>
    </edge>
    <edge id=":n7_0" function="internal">
        <lane id=":n7_0_0" index="0" speed="6.51" length="9.03" shape="254.80,75989.60 255.15,75992.05 256.20,75993.80 257.95,75994.85 260.40,75995.20"/>
    </edge>
    <edge id=":n7_1" function="internal">
        <lane id=":n7_1_0" index="0" speed="13.89" length="14.40" shape="254.80,75989.60 254.80,76004.00"/>
        <lane id=":n7_1_1" index="1" speed="13.89" length="14.40" shape="251.60,75989.60 251.60,76004.00"/>
    </edge>
    <edge id=":n7_3" function="internal">
        <lane id=":n7_3_0" index="0" speed="11.11" length="14.40" shape="246.00,75995.20 260.40,75995.20"/>
        <lane id=":n7_3_1" index="1" speed="11.11" length="14.40" shape="246.00,75998.40 260.40,75998.40"/>
    </edge>
    <edge id=":n7_5" function="internal">
        <lane id=":n7_5_0" index="0" speed="6.51" length="9.03" shape="246.00,75998.40 248.45,75998.75 250.20,75999.80 251.25,76001.55 251.60,76004.00"/>
    </edge>
    <edge id=":n8_0" function="internal">
        <lane id=":n8_0_0" index="0" speed="6.51" length="9.03" shape="254.80,76739.60 255.15,76742.05 256.20,76743.80 257.95,76744.85 260.40,76745.20"/>
    </edge>
    <edge id=":n8_1" function="internal">
        <lane id=":n8_1_0" index="0" speed="13.89" length="14.40" shape="254.80,76739.60 254.80,76754.00"/>
        <lane id=":n8_1_1" index="1" speed="13.89" length="14.40" shape="251.60,76739.60 251.60,76754.00"/>
    </edge>
    <edge id=":n8_3" function="internal">
        <lane id=":n8_3_0" index="0" speed="11.11" length="14.40" shape="246.00,76745.20 260.40,76745.20"/>
        <lane id=":n8_3_1" index="1" speed="11.11" length="14.40" shape="246.00,76748.40 260.40,76748.40"/>
    </edge>
    <edge id=":n8_5" function="internal">
        <lane id=":n8_5_0" index="0" speed="6.51" length="9.03" shape="246.00,76748.40 248.45,76748.75 250.20,76749.80 251.25,76751.55 251.60,76754.00"/>
    </edge>
    <edge id=":n9_0" function="internal">
        <lane id=":n9_0_0" index="0" speed="6.51" length="9.03" shape="254.80,77489.60 255.15,77492.05 256.20,77493.80 257.95,77494.85 260.40,77495.20"/>
        <lane id=":n9_0_1" index="1" speed="8.00" length="14.19" shape="251.60,77489.60 252.15,77493.45 253.80,77496.20 256.55,77497.85 260.40,77498.40"/>
    </edge>
    <edge id=":n9_2" function="internal">
        <lane id=":n9_2_0" index="0" speed="11.11" length="14.40" shape="246.00,77495.20 260.40,77495.20"/>
        <lane id=":n9_2_1" index="1" speed="11.11" length="14.40" shape="246.00,77498.40 260.40,77498.40"/>
    </edge>

    <edge id="e0" from="n0" to="n1" priority="-1">
        <lane id="e0_0" index="0" speed="13.89" length="738.10" shape="-995.20,74501.50 -995.20,75239.60"/>
        <lane id="e0_1" index="1" speed="13.89" length="738.10" shape="-998.40,74501.50 -998.40,75239.60"/>
    </edge>
    <edge id="e1" from="n1" to="n2" priority="-1">
        <lane id="e1_0" index="0" speed="13.89" length="735.60" shape="-995.20,75254.00 -995.20,75989.60"/>
        <lane id="e1_1" index="1" speed="13.89" length="735.60" shape="-998.40,75254.00 -998.40,75989.60"/>
    </edge>
    <edge id="e10" from="n12" to="n13" priority="-1">
        <lane id="e10_0" index="0" speed="13.89" length="735.60" shape="1504.80,76004.00 1504.80,76739.60"/>
        <lane id="e10_1" index="1" speed="13.89" length="735.60" shape="1501.60,76004.00 1501.60,76739.60"/>
    </edge>
    <edge id="e11" from="n13" to="n14" priority="-1">
        <lane id="e11_0" index="0" speed="13.89" length="735.60" shape="1504.80,76754.00 1504.80,77489.60"/>
        <lane id="e11_1" index="1" speed="13.89" length="735.60" shape="1501.60,76754.00 1501.60,77489.60"/>
    </edge>
    <edge id="e12" from="n15" to="n16" priority="-1">
        <lane id="e12_0" index="0" speed="13.89" length="735.60" shape="2754.80,74504.00 2754.80,75239.60"/>
        <lane id="e12_1" index="1" speed="13.89" length="735.60" shape="2751.60,74504.00 2751.60,75239.60"/>
    </edge>
    <edge id="e13" from="n16" to="n17" priority="-1">
        <lane id="e13_0" index="0" speed="13.89" length="735.60" shape="2754.80,75254.00 2754.80,75989.60"/>
        <lane id="e13_1" index="1" speed="13.89" length="735.60" shape="2751.60,75254.00 2751.60,75989.60"/>
    </edge>
    <edge id="e14" from="n17" to="n18" priority="-1">
        <lane id="e14_0" index="0" speed="13.89" length="735.60" shape="2754.80,76004.00 2754.80,76739.60"/>
        <lane id="e14_1" index="1" speed="13.89" length="735.60" shape="2751.60,76004.00 2751.60,76739.60"/>
    </edge>
    <edge id="e15" from="n18" to="n19" priority="-1">
        <lane id="e15_0" index="0" speed="13.89" length="735.60" shape="2754.80,76754.00 2754.80,77489.60"/>
        <lane id="e15_1" index="1" speed="13.89" length="735.60" shape="2751.60,76754.00 2751.60,77489.60"/>
    </edge>
    <edge id="e16" from="n20" to="n21" priority="-1">
        <lane id="e16_0" index="0" speed="13.89" length="739.60" shape="4004.80,74500.00 4004.80,75239.60"/>
        <lane id="e16_1" index="1" speed="13.89" length="739.60" shape="4001.60,74500.00 4001.60,75239.60"/>
    </edge>
    <edge id="e17" from="n21" to="n22" priority="-1">
        <lane id="e17_0" index="0" speed="13.89" length="735.60" shape="4004.80,75254.00 4004.80,75989.60"/>
        <lane id="e17_1" index="1" speed="13.89" length="735.60" shape="4001.60,75254.00 4001.60,75989.60"/>
    </edge>
    <edge id="e18" from="n22" to="n23" priority="-1">
        <lane id="e18_0" index="0" speed="13.89" length="735.60" shape="4004.80,76004.00 4004.80,76739.60"/>
        <lane id="e18_1" index="1" speed="13.89" length="735.60" shape="4001.60,76004.00 4001.60,76739.60"/>
    </edge>
    <edge id="e19" from="n23" to="n24" priority="-1">
        <lane id="e19_0" index="0" speed="13.89" length="738.10" shape="4004.80,76754.00 4004.80,77492.10"/>
        <lane id="e19_1" index="1" speed="13.89" length="738.10" shape="4001.60,76754.00 4001.60,77492.10"/>
    </edge>
    <edge id="e2" from="n2" to="n3" priority="-1">
        <lane id="e2_0" index="0" speed="13.89" length="735.60" shape="-995.20,76004.00 -995.20,76739.60"/>
        <lane id="e2_1" index="1" speed="13.89" length="735.60" shape="-998.40,76004.00 -998.40,76739.60"/>
    </edge>
    <edge id="e20" from="n0" to="n5" priority="-1">
        <lane id="e20_0" index="0" speed="11.11" length="1238.10" shape="-992.10,74495.20 246.00,74495.20"/>
        <lane id="e20_1" index="1" speed="11.11" length="1238.10" shape="-992.10,74498.40 246.00,74498.40"/>
    </edge>
    <edge id="e21" from="n5" to="n10" priority="-1">
        <lane id="e21_0" index="0" speed="11.11" length="1235.60" shape="260.40,74495.20 1496.00,74495.20"/>
        <lane id="e21_1" index="1" speed="11.11" length="1235.60" shape="260.40,74498.40 1496.00,74498.40"/>
    </edge>
    <edge id="e22" from="n10" to="n15" priority="-1">
        <lane id="e22_0" index="0" speed="11.11" length="1235.60" shape="1510.40,74495.20 2746.00,74495.20"/>
        <lane id="e22_1" index="1" speed="11.11" length="1235.60" shape="1510.40,74498.40 2746.00,74498.40"/>
    </edge>
    <edge id="e23" from="n15" to="n20" priority="-1">
        <lane id="e23_0" index="0" speed="11.11" length="1239.60" shape="2760.40,74495.20 4000.00,74495.20"/>
        <lane id="e23_1" index="1" speed="11.11" length="1239.60" shape="2760.40,74498.40 4000.00,74498.40"/>
    </edge>
    <edge id="e24" from="n1" to="n6" priority="-1">
        <lane id="e24_0" index="0" speed="11.11" length="1235.60" shape="-989.60,75245.20 246.00,75245.20"/>
        <lane id="e24_1" index="1" speed="11.11" length="1235.60" shape="-989.60,75248.40 246.00,75248.40"/>
    </edge>
    <edge id="e25" from="n6" to="n11" priority="-1">
        <lane id="e25_0" index="0" speed="11.11" length="1235.60" shape="260.40,75245.20 1496.00,75245.20"/>
        <lane id="e25_1" index="1" speed="11.11" length="1235.60" shape="260.40,75248.40 1496.00,75248.40"/>
    </edge>
    <edge id="e26" from="n11" to="n16" priority="-1">
        <lane id="e26_0" index="0" speed="11.11" length="1235.60" shape="1510.40,75245.20 2746.00,75245.20"/>
        <lane id="e26_1" index="1" speed="11.11" length="1235.60" shape="1510.40,75248.40 2746.00,75248.40"/>
    </edge>
    <edge id="e27" from="n16" to="n21" priority="-1">
        <lane id="e27_0" index="0" speed="11.11" length="1235.60" shape="2760.40,75245.20 3996.00,75245.20"/>
        <lane id="e27_1" index="1" speed="11.11" length="1235.60" shape="2760.40,75248.40 3996.00,75248.40"/>
    </edge>
    <edge id="e28" from="n2" to="n7" priority="-1">
        <lane id="e28_0" index="0" speed="11.11" length="1235.60" shape="-989.60,75995.20 246.00,75995.20"/>
        <lane id="e28_1" index="1" speed="11.11" length="1235.60" shape="-989.60,75998.40 246.00,75998.40"/>
    </edge>
    <edge id="e29" from="n7" to="n12" priority="-1">
        <lane id="e29_0" index="0" speed="11.11" length="1235.60" shape="260.40,75995.20 1496.00,75995.20"/>
        <lane id="e29_1" index="1" speed="11.11" length="1235.60" shape="260.40,75998.40 1496.00,75998.40"/>
    </edge>
    <edge id="e3" from="n3" to="n4" priority="-1">
        <lane id="e3_0" index="0" speed="13.89" length="739.60" shape="-995.20,76754.00 -995.20,77493.60"/>
        <lane id="e3_1" index="1" speed="13.89" length="739.60" shape="-998.40,76754.00 -998.40,77493.60"/>
    </edge>
    <edge id="e30" from="n12" to="n17" priority="-1">
        <lane id="e30_0" index="0" speed="11.11" length="1235.60" shape="1510.40,75995.20 2746.00,75995.20"/>
        <lane id="e30_1" index="1" speed="11.11" length="1235.60" shape="1510.40,75998.40 2746.00,75998.40"/>
    </edge>
    <edge id="e31" from="n17" to="n22" priority="-1">
        <lane id="e31_0" index="0" speed="11.11" length="1235.60" shape="2760.40,75995.20 3996.00,75995.20"/>
        <lane id="e31_1" index="1" speed="11.11" length="1235.60" shape="2760.40,75998.40 3996.00,75998.40"/>
    </edge>
    <edge id="e32" from="n3" to="n8" priority="-1">
        <lane id="e32_0" index="0" speed="11.11" length="1235.60" shape="-989.60,76745.20 246.00,76745.20"/>
        <lane id="e32_1" index="1" speed="11.11" length="1235.60" shape="-989.60,76748.40 246.00,76748.40"/>
    </edge>
    <edge id="e33" from="n8" to="n13" priority="-1">
        <lane id="e33_0" index="0" speed="11.11" length="1235.60" shape="260.40,76745.20 1496.00,76745.20"/>
        <lane id="e33_1" index="1" speed="11.11" length="1235.60" shape="260.40,76748.40 1496.00,76748.40"/>
    </edge>
    <edge id="e34" from="n13" to="n18" priority="-1">
        <lane id="e34_0" index="0" speed="11.11" length="1235.60" shape="1510.40,76745.20 2746.00,76745.20"/>
        <lane id="e34_1" index="1" speed="11.11" length="1235.60" shape="1510.40,76748.40 2746.00,76748.40"/>
    </edge>
    <edge id="e35" from="n18" to="n23" priority="-1">
        <lane id="e35_0" index="0" speed="11.11" length="1235.60" shape="2760.40,76745.20 3996.00,76745.20"/>
        <lane id="e35_1" index="1" speed="11.11" length="1235.60" shape="2760.40,76748.40 3996.00,76748.40"/>
    </edge>
    <edge id="e36" from="n4" to="n9" priority="-1">
        <lane id="e36_0" index="0" speed="11.11" length="1239.60" shape="-993.60,77495.20 246.00,77495.20"/>
        <lane id="e36_1" index="1" speed="11.11" length="1239.60" shape="-993.60,77498.40 246.00,77498.40"/>
    </edge>
    <edge id="e37" from="n9" to="n14" priority="-1">
        <lane id="e37_0" index="0" speed="11.11" length="1235.60" shape="260.40,77495.20 1496.00,77495.20"/>
        <lane id="e37_1" index="1" speed="11.11" length="1235.60" shape="260.40,77498.40 1496.00,77498.40"/>
    </edge>
    <edge id="e38" from="n14" to="n19" priority="-1">
        <lane id="e38_0" index="0" speed="11.11" length="1235.60" shape="1510.40,77495.20 2746.00,77495.20"/>
        <lane id="e38_1" index="1" speed="11.11" length="1235.60" shape="1510.40,77498.40 2746.00,77498.40"/>
    </edge>
    <edge id="e39" from="n19" to="n24" priority="-1">
        <lane id="e39_0" index="0" speed="11.11" length="1238.10" shape="2760.40,77495.20 3998.50,77495.20"/>
        <lane id="e39_1" index="1" speed="11.11" length="1238.10" shape="2760.40,77498.40 3998.50,77498.40"/>
    </edge>
    <edge id="e4" from="n5" to="n6" priority="-1">
        <lane id="e4_0" index="0" speed="13.89" length="735.60" shape="254.80,74504.00 254.80,75239.60"/>
        <lane id="e4_1" index="1" speed="13.89" length="735.60" shape="251.60,74504.00 251.60,75239.60"/>
    </edge>
    <edge id="e5" from="n6" to="n7" priority="-1">
        <lane id="e5_0" index="0" speed="13.89" length="735.60" shape="254.80,75254.00 254.80,75989.60"/>
        <lane id="e5_1" index="1" speed="13.89" length="735.60" shape="251.60,75254.00 251.60,75989.60"/>
    </edge>
    <edge id="e6" from="n7" to="n8" priority="-1">
        <lane id="e6_0" index="0" speed="13.89" length="735.60" shape="254.80,76004.00 254.80,76739.60"/>
        <lane id="e6_1" index="1" speed="13.89" length="735.60" shape="251.60,76004.00 251.60,76739.60"/>
    </edge>
    <edge id="e7" from="n8" to="n9" priority="-1">
        <lane id="e7_0" index="0" speed="13.89" length="735.60" shape="254.80,76754.00 254.80,77489.60"/>
        <lane id="e7_1" index="1" speed="13.89" length="735.60" shape="251.60,76754.00 251.60,77489.60"/>
    </edge>
    <edge id="e8" from="n10" to="n11" priority="-1">
        <lane id="e8_0" index="0" speed="13.89" length="735.60" shape="1504.80,74504.00 1504.80,75239.60"/>
        <lane id="e8_1" index="1" speed="13.89" length="735.60" shape="1501.60,74504.00 1501.60,75239.60"/>
    </edge>
    <edge id="e9" from="n11" to="n12" priority="-1">
        <lane id="e9_0" index="0" speed="13.89" length="735.60" shape="1504.80,75254.00 1504.80,75989.60"/>
        <lane id="e9_1" index="1" speed="13.89" length="735.60" shape="1501.60,75254.00 1501.60,75989.60"/>
    </edge>

    <tlLogic id="n10" type="static" programID="0" offset="0">
        <phase duration="82" state="GGGG"/>
        <phase duration="3"  state="yyyy"/>